hf-mfi_opt
_chemical_formula_structural       O192Si95Hf
_chemical_formula_sum              "O192 Si95 Hf1"
_cell_length_a       20.384656500140103
_cell_length_b       19.86514497945843
_cell_length_c       13.365892648829973
_cell_angle_alpha    89.94712849928429
_cell_angle_beta     89.9980758920933
_cell_angle_gamma    90.01817232142358

_space_group_name_H-M_alt    "P 1"
_space_group_IT_number       1

loop_
  _space_group_symop_operation_xyz
  'x, y, z'

loop_
  _atom_site_type_symbol
  _atom_site_label
  _atom_site_symmetry_multiplicity
  _atom_site_fract_x
  _atom_site_fract_y
  _atom_site_fract_z
  _atom_site_occupancy
  O   O1        1.0  0.5027755680846884  0.0729224659005368  0.7071312189414882  1.0000
  O   O2        1.0  0.4967243077995007  0.9272164385044788  0.29139552532703816  1.0000
  O   O3        1.0  0.9974543856333504  0.9276531708390137  0.20870052664114477  1.0000
  O   O4        1.0  0.002975753287985  0.068728270518039  0.7871725061822915  1.0000
  O   O5        1.0  0.49642707065614544  0.5727593099832591  0.2971926349869917  1.0000
  O   O6        1.0  0.4881236925049668  0.4165131993971406  0.7301273533990784  1.0000
  O   O7        1.0  0.9983159486194917  0.4278037224904286  0.8019494292019735  1.0000
  O   O8        1.0  0.9942791801002248  0.5739876783666213  0.21306344153887066  1.0000
  O   O9        1.0  0.3872275303516863  0.0670967892422167  0.7958219064202426  1.0000
  O   O10       1.0  0.6123540744095639  0.9350767882587278  0.20341106900503328  1.0000
  O   O11       1.0  0.1133079552139314  0.9322635988964075  0.29571908520380874  1.0000
  O   O12       1.0  0.8864401295416754  0.0688075712981242  0.7017223089428078  1.0000
  O   O13       1.0  0.6090847169873325  0.5687927475035889  0.2011529833566102  1.0000
  O   O14       1.0  0.3670377643737963  0.4244292469669882  0.7947491847026332  1.0000
  O   O15       1.0  0.8856336603971601  0.43030219091191263  0.705933634168512  1.0000
  O   O16       1.0  0.11087807350291339  0.5646253068936359  0.2944101167401562  1.0000
  O   O17       1.0  0.40210689253069093  0.13951091897331366  0.6309457019581868  1.0000
  O   O18       1.0  0.5984767034571307  0.8627224522849984  0.3683006012996641  1.0000
  O   O19       1.0  0.0973063187449579  0.8606020464892943  0.1311736757115629  1.0000
  O   O20       1.0  0.905907518337923  0.1382120665499681  0.8669458513000039  1.0000
  O   O21       1.0  0.5986803403693756  0.6388721587395063  0.3683785318328987  1.0000
  O   O22       1.0  0.39410086355150775  0.3569101705794921  0.6299719720969559  1.0000
  O   O23       1.0  0.8983246516584994  0.3587257032512384  0.872539149288888  1.0000
  O   O24       1.0  0.0953860029740347  0.6363255887028684  0.1298639290239837  1.0000
  O   O25       1.0  0.4056041490182709  0.005487975700151499  0.6208933882238995  1.0000
  O   O26       1.0  0.5923230352938844  0.9967913910294744  0.3774804267612238  1.0000
  O   O27       1.0  0.0946749018072689  0.9950591289880707  0.12179152065967969  1.0000
  O   O28       1.0  0.9045344908564315  0.004029629326268599  0.874591080894682  1.0000
  O   O29       1.0  0.5963933223913125  0.5045412114622414  0.3751598132151843  1.0000
  O   O30       1.0  0.4033231446834519  0.49152541221930174  0.6299843590114504  1.0000
  O   O31       1.0  0.8961972082917896  0.49288127532370857  0.8803888289896199  1.0000
  O   O32       1.0  0.084214391882641  0.502580632153105  0.11940809436782088  1.0000
  O   O33       1.0  0.3224068438976954  0.0388194120445622  0.9628478769526901  1.0000
  O   O34       1.0  0.6773316824064142  0.9618564785427238  0.03672939677543209  1.0000
  O   O35       1.0  0.1764223246309096  0.9621304525675095  0.4633416832500418  1.0000
  O   O36       1.0  0.8227834895019578  0.0397387629539819  0.53447802009054  1.0000
  O   O37       1.0  0.6755251934068173  0.541218784484775  0.03580376911426819  1.0000
  O   O38       1.0  0.315458647722699  0.46449733940127574  0.9653309830283063  1.0000
  O   O39       1.0  0.8251282882358756  0.4639155200752492  0.5361632538916702  1.0000
  O   O40       1.0  0.1774406470861911  0.540695733929767  0.4615747703551967  1.0000
  O   O41       1.0  0.3200626259007856  0.9539737238360514  0.8059706243880557  1.0000
  O   O42       1.0  0.6828662054060433  0.0467008045410271  0.19198438606243068  1.0000
  O   O43       1.0  0.1779409855951426  0.0467788017831868  0.3070690771767403  1.0000
  O   O44       1.0  0.8218425004673531  0.9548843439101224  0.691008304506687  1.0000
  O   O45       1.0  0.6732722519480071  0.45424030508974456  0.18990003876085337  1.0000
  O   O46       1.0  0.3163573890247849  0.5462131930772972  0.8059524984163347  1.0000
  O   O47       1.0  0.8251497149383621  0.5471779926043862  0.6939068749747614  1.0000
  O   O48       1.0  0.180115694877611  0.4539437042538454  0.3065517345520489  1.0000
  O   O49       1.0  0.2560972585968631  0.06925814443946542  0.8005033986624186  1.0000
  O   O50       1.0  0.7433708840337085  0.9296416991131258  0.19952956279887885  1.0000
  O   O51       1.0  0.2444176411040467  0.9324234552676158  0.301808499024496  1.0000
  O   O52       1.0  0.7549424517524573  0.06887649269044162  0.6963466154074326  1.0000
  O   O53       1.0  0.7398344268597289  0.5679435608744999  0.20225258040623498  1.0000
  O   O54       1.0  0.2387107154506249  0.4383027141389817  0.8106999451063795  1.0000
  O   O55       1.0  0.7549168761836202  0.4348771388437292  0.6952061571965108  1.0000
  O   O56       1.0  0.24134605775888376  0.5714408128270302  0.2978368203812282  1.0000
  O   O57       1.0  0.2910387261951953  0.126551187082585  0.10361663272065479  1.0000
  O   O58       1.0  0.7092610646934028  0.876110430941903  0.89483580516223  1.0000
  O   O59       1.0  0.2070354554340086  0.8749961399386507  0.6044602028884748  1.0000
  O   O60       1.0  0.7914183457585132  0.12535382775026802  0.39124455939065494  1.0000
  O   O61       1.0  0.7048494565255508  0.6267068204122547  0.8924989041876564  1.0000
  O   O62       1.0  0.2917381055185783  0.3748044583183981  0.10668115804988829  1.0000
  O   O63       1.0  0.7983586784162205  0.3741243069840895  0.3976568207268257  1.0000
  O   O64       1.0  0.2130316454038257  0.627041775194789  0.6029059964408816  1.0000
  O   O65       1.0  0.19923521128670513  0.0446620922544109  0.028228463821828795  1.0000
  O   O66       1.0  0.8007616495537697  0.9570600303840483  0.9730874991259527  1.0000
  O   O67       1.0  0.2989217500530608  0.9579462214671239  0.530560263841708  1.0000
  O   O68       1.0  0.7004936978489205  0.042280914108551296  0.4663060260581389  1.0000
  O   O69       1.0  0.7998416482684626  0.5534905822055037  0.9793793182667947  1.0000
  O   O70       1.0  0.19762811796786534  0.4600089677075618  0.048101688061221094  1.0000
  O   O71       1.0  0.7035001336611227  0.4566398425364706  0.4640179530712281  1.0000
  O   O72       1.0  0.3005278876717549  0.5405039920340585  0.5302478345447813  1.0000
  O   O73       1.0  0.2942908597461562  0.9968586743154955  0.14519893559384386  1.0000
  O   O74       1.0  0.7068472490415257  0.006094271547490999  0.8558737290863369  1.0000
  O   O75       1.0  0.2029407654185953  0.0045794123966317  0.6460824613764197  1.0000
  O   O76       1.0  0.797347627791402  0.9950506885034195  0.3526341882910324  1.0000
  O   O77       1.0  0.7132777395939378  0.49598548875263704  0.8588786277695918  1.0000
  O   O78       1.0  0.3003852647873314  0.5038730575214784  0.15158610629014038  1.0000
  O   O79       1.0  0.8001206153824337  0.5030465218886673  0.35096639588099837  1.0000
  O   O80       1.0  0.2009641652223036  0.49771142149288117  0.6434703443851963  1.0000
  O   O81       1.0  0.1075010088913921  0.1277801942839775  0.09806761117166278  1.0000
  O   O82       1.0  0.8920744791488193  0.8726618757429884  0.9049729853113692  1.0000
  O   O83       1.0  0.3910648623076975  0.8738737129911504  0.5959877796190296  1.0000
  O   O84       1.0  0.6090504143867409  0.1279069972682493  0.40196021191390946  1.0000
  O   O85       1.0  0.8946624092174627  0.6269334043708971  0.899408453612773  1.0000
  O   O86       1.0  0.10405362918408541  0.37173795405868026  0.09632993518393328  1.0000
  O   O87       1.0  0.6168217613349009  0.3717951431054682  0.3861916106247309  1.0000
  O   O88       1.0  0.39373983340549457  0.6235944373033674  0.5993217112348296  1.0000
  O   O89       1.0  0.0808255748001234  0.0494106464907539  0.9442000239632451  1.0000
  O   O90       1.0  0.9193018348029944  0.9541929254877812  0.0553054945749473  1.0000
  O   O91       1.0  0.4154036714578189  0.9526968813071577  0.4415106088268673  1.0000
  O   O92       1.0  0.5848574251635124  0.0486257109638998  0.5573729194401136  1.0000
  O   O93       1.0  0.920869117692137  0.548866910181237  0.053692848558222  1.0000
  O   O94       1.0  0.0903004823702177  0.4495585614070494  0.9378757189237095  1.0000
  O   O95       1.0  0.5867738014261379  0.440991389498711  0.5475716795208561  1.0000
  O   O96       1.0  0.41980242530673906  0.5412270412368729  0.45027541154436745  1.0000
  O   O97       1.0  0.1292489656721161  0.08021001234139771  0.765138708398178  1.0000
  O   O98       1.0  0.8706736427858381  0.9188875105130724  0.2330167469386175  1.0000
  O   O99       1.0  0.3704994950773891  0.9204606977748606  0.2604141426223888  1.0000
  O   O100      1.0  0.6286359076065743  0.0780585210211242  0.7393063440651371  1.0000
  O   O101      1.0  0.867305171711782  0.5808381260389589  0.228334549077997  1.0000
  O   O102      1.0  0.1195139767483938  0.4189229691300432  0.746953612924896  1.0000
  O   O103      1.0  0.6381896215873569  0.40658438122445745  0.7675606523115103  1.0000
  O   O104      1.0  0.36959310195331  0.5798367280515745  0.27542213938290333  1.0000
  O   O105      1.0  0.0782578571697073  0.959859676356698  0.7956006250470514  1.0000
  O   O106      1.0  0.9243053381159769  0.0385423232081958  0.21044837685824666  1.0000
  O   O107      1.0  0.42513269103619583  0.0391716621562268  0.2895321749156091  1.0000
  O   O108      1.0  0.5719508020694704  0.9597372141779525  0.7067353189884856  1.0000
  O   O109      1.0  0.9237106158850166  0.461259486175412  0.2046508143895905  1.0000
  O   O110      1.0  0.0715370237056506  0.5386317087048768  0.7922331088034867  1.0000
  O   O111      1.0  0.5755457156256473  0.5482232806032455  0.717010162038323  1.0000
  O   O112      1.0  0.4259388125190461  0.4602181571382044  0.291992452758411  1.0000
  O   O113      1.0  0.21380084503389538  0.1387436041743276  0.6475647936474003  1.0000
  O   O114      1.0  0.7869166190500386  0.8607438218006133  0.35229702279392977  1.0000
  O   O115      1.0  0.2830374557989109  0.8627356460156296  0.14594598034224146  1.0000
  O   O116      1.0  0.7159749417726241  0.1400967718056978  0.8503443421819752  1.0000
  O   O117      1.0  0.7849952657957043  0.6370724104695924  0.3533932578306678  1.0000
  O   O118      1.0  0.21900348242695122  0.36507417311843793  0.6464555687760741  1.0000
  O   O119      1.0  0.744713817095817  0.3649890056060365  0.8619368424033942  1.0000
  O   O120      1.0  0.2910014795963203  0.6385677116297769  0.1477510163943338  1.0000
  O   O121      1.0  0.49692605653235106  0.8496991963064152  0.7101792623730068  1.0000
  O   O122      1.0  0.5020839991539129  0.14652512228899386  0.28808127954645313  1.0000
  O   O123      1.0  0.0024589820850443  0.1446660160433123  0.21600341455329236  1.0000
  O   O124      1.0  0.9961075079850747  0.8563122924642248  0.7841744663043334  1.0000
  O   O125      1.0  0.5036104073733008  0.35364574555969164  0.28681682051762486  1.0000
  O   O126      1.0  0.49830621639169853  0.655510553977446  0.7138491177411367  1.0000
  O   O127      1.0  0.9995285520876819  0.6491905901724322  0.7838853126277134  1.0000
  O   O128      1.0  0.0033789111631634997  0.35566240846035085  0.2246330546366723  1.0000
  O   O129      1.0  0.3795928152747018  0.8362366370369986  0.7874420102645776  1.0000
  O   O130      1.0  0.6182943733842534  0.1613388636076314  0.20772288756661658  1.0000
  O   O131      1.0  0.1202507465353431  0.1657132014847344  0.2884343871377538  1.0000
  O   O132      1.0  0.8778293003128198  0.8354763680710153  0.7142263915641169  1.0000
  O   O133      1.0  0.6170820996923414  0.3332135518351878  0.19745409441109787  1.0000
  O   O134      1.0  0.3803309376332875  0.6623890830837719  0.7885506599242126  1.0000
  O   O135      1.0  0.8817702800665845  0.666790713027061  0.7097658642816492  1.0000
  O   O136      1.0  0.1224401295165643  0.3344032983999917  0.28683723192882465  1.0000
  O   O137      1.0  0.4179432463391459  0.7499577827228766  0.6480639860220397  1.0000
  O   O138      1.0  0.5770906169637072  0.2496338112454333  0.34244242453291446  1.0000
  O   O139      1.0  0.071401625657585  0.25012170990417854  0.1535376773023504  1.0000
  O   O140      1.0  0.9263825295460762  0.750876016429406  0.8488755591306157  1.0000
  O   O141      1.0  0.3157082331389352  0.8659762414281169  0.9539880343949051  1.0000
  O   O142      1.0  0.685735395124167  0.13494886392862218  0.0423602195167627  1.0000
  O   O143      1.0  0.1829285870136066  0.1352671790592936  0.4550968479046383  1.0000
  O   O144      1.0  0.8176903548803353  0.8655598968064564  0.5445686558159246  1.0000
  O   O145      1.0  0.6908208884815773  0.36805501009808  0.0431209526827731  1.0000
  O   O146      1.0  0.3165487680462668  0.6341256727527173  0.9547056584524193  1.0000
  O   O147      1.0  0.8171065924957722  0.6335353386171224  0.5448148073947935  1.0000
  O   O148      1.0  0.1819308692872199  0.366793203329427  0.45576140820812305  1.0000
  O   O149      1.0  0.2490839853712972  0.8427985363240653  0.7873654164849141  1.0000
  O   O150      1.0  0.748939587928913  0.1608830755821737  0.2098363503558762  1.0000
  O   O151      1.0  0.2505289115447555  0.1565054896599771  0.28867887487480975  1.0000
  O   O152      1.0  0.7475551566614551  0.8466442430261152  0.7084900400228048  1.0000
  O   O153      1.0  0.7462343333289564  0.3458407742257233  0.22005747528456418  1.0000
  O   O154      1.0  0.2500590129780704  0.6604042100453139  0.7889113756409777  1.0000
  O   O155      1.0  0.7519034977949133  0.6571706845512729  0.7124533151423951  1.0000
  O   O156      1.0  0.2519205414742756  0.3436467120638333  0.2912808822867868  1.0000
  O   O157      1.0  0.2949189716097864  0.7503315336810118  0.045828058180091495  1.0000
  O   O158      1.0  0.7100100372093006  0.25179064244426963  0.9529643097123068  1.0000
  O   O159      1.0  0.20207956850512793  0.2510054104094609  0.5493561794355205  1.0000
  O   O160      1.0  0.7959548477065935  0.7493391857989968  0.45429569530653235  1.0000
  O   O161      1.0  0.1951739447153215  0.8332234182106958  0.006178401374923199  1.0000
  O   O162      1.0  0.807269417727943  0.1660818215065686  0.9885522657157463  1.0000
  O   O163      1.0  0.3026849505803589  0.16832002104544777  0.5095725240629592  1.0000
  O   O164      1.0  0.6971656881782924  0.8338193641411987  0.4904559297965398  1.0000
  O   O165      1.0  0.812267998101727  0.3246921134284613  0.0163432829163915  1.0000
  O   O166      1.0  0.1969110847885326  0.6643011348027176  0.014066777363850999  1.0000
  O   O167      1.0  0.6963147038437548  0.6664962093144641  0.49287908180392104  1.0000
  O   O168      1.0  0.3018551498038602  0.3295738012808865  0.5001344173154748  1.0000
  O   O169      1.0  0.0948939205889413  0.7484064502440766  0.024766607338666497  1.0000
  O   O170      1.0  0.9135222243353526  0.24684873871190027  0.978320264264204  1.0000
  O   O171      1.0  0.40637679570036406  0.24878227195029481  0.5169920433622531  1.0000
  O   O172      1.0  0.5951020770517821  0.75077655452286  0.47461601945838455  1.0000
  O   O173      1.0  0.0788949401933301  0.8662521236966136  0.9355477225880737  1.0000
  O   O174      1.0  0.920490863975198  0.1268412476108453  0.063521373213446  1.0000
  O   O175      1.0  0.41594054361683996  0.1280266399305186  0.4347469830687996  1.0000
  O   O176      1.0  0.5829250777295268  0.8689129795169436  0.5649482470311485  1.0000
  O   O177      1.0  0.9301562871623642  0.3671776408012762  0.06403016449498669  1.0000
  O   O178      1.0  0.0840357297434852  0.6306876414826714  0.9325987959473026  1.0000
  O   O179      1.0  0.5803749764765339  0.6325828579248234  0.5643090412131491  1.0000
  O   O180      1.0  0.4183266518232847  0.36925472556642336  0.43542565359395113  1.0000
  O   O181      1.0  0.1219863476294873  0.8390595613308963  0.7495681474829643  1.0000
  O   O182      1.0  0.8763089794878114  0.1598890791971069  0.2463680771823475  1.0000
  O   O183      1.0  0.3770085539934306  0.15961370071620126  0.24815884952652179  1.0000
  O   O184      1.0  0.622069520906473  0.840770407892061  0.7534038907798554  1.0000
  O   O185      1.0  0.8753483136323515  0.3406736780748411  0.24253797092491708  1.0000
  O   O186      1.0  0.1244342704301035  0.6561727221177788  0.7447243017631506  1.0000
  O   O187      1.0  0.6248254398526718  0.6701731503755676  0.7449750499772062  1.0000
  O   O188      1.0  0.3782665738759196  0.3395839300971953  0.24916734179583058  1.0000
  O   O189      1.0  0.199859842769929  0.7504678460636454  0.6643142952240498  1.0000
  O   O190      1.0  0.8005714791065075  0.2506584521473151  0.3325189855732915  1.0000
  O   O191      1.0  0.2984991551701511  0.2503405544362115  0.16755662452697678  1.0000
  O   O192      1.0  0.70571028876397  0.7525091042193767  0.8337675842054398  1.0000
  Si  Si1       1.0  0.424371627394702  0.0708424861908841  0.6880357512469518  1.0000
  Si  Si2       1.0  0.575064045140037  0.9307268717694687  0.31097622216538906  1.0000
  Si  Si3       1.0  0.0757206071711038  0.9293083031387025  0.188311881794739  1.0000
  Si  Si4       1.0  0.9248818711612323  0.069402542376053  0.8084221678680389  1.0000
  Si  Si5       1.0  0.5752185439026058  0.5707541055836339  0.3115701207239077  1.0000
  Si  Si6       1.0  0.41255627419602275  0.4227899355970155  0.695503265680053  1.0000
  Si  Si7       1.0  0.9197756941388935  0.42788855271801335  0.8161046526765611  1.0000
  Si  Si8       1.0  0.0719108997738199  0.5688851403036201  0.18836851977162317  1.0000
  Si  Si9       1.0  0.3215636679645557  0.0322354676812557  0.8419342404341168  1.0000
  Si  Si10      1.0  0.6788780136864031  0.9681904234875399  0.1575643219013566  1.0000
  Si  Si11      1.0  0.1780083911371564  0.9683313471863914  0.3424576028884792  1.0000
  Si  Si12      1.0  0.8213834312937256  0.03318189871163579  0.6553516644989903  1.0000
  Si  Si13      1.0  0.6746006339795594  0.533069266314116  0.15646185216328878  1.0000
  Si  Si14      1.0  0.309219423673456  0.46875968605406404  0.8449348236520868  1.0000
  Si  Si15      1.0  0.8230052496630106  0.4690704161877097  0.6570482964836996  1.0000
  Si  Si16      1.0  0.1774795727167616  0.5325162694391374  0.34093007072633846  1.0000
  Si  Si17      1.0  0.2761796820885287  0.05183305117347909  0.060018786168146994  1.0000
  Si  Si18      1.0  0.7240881159682189  0.950237786682655  0.9398977683333577  1.0000
  Si  Si19      1.0  0.221978757818088  0.9498150919006113  0.5613648052056647  1.0000
  Si  Si20      1.0  0.7774904696800334  0.05067494845828001  0.43575182418710956  1.0000
  Si  Si21      1.0  0.7239147137562936  0.5544927214080573  0.9411727549167573  1.0000
  Si  Si22      1.0  0.275590661971183  0.4505279551854826  0.06826857391790078  1.0000
  Si  Si23      1.0  0.7810125668949479  0.4492379635169816  0.4372397994682687  1.0000
  Si  Si24      1.0  0.2235409417384279  0.551575524373779  0.5594200405952536  1.0000
  Si  Si25      1.0  0.1210033291021767  0.05429448526235111  0.04848945224221679  1.0000
  Si  Si26      1.0  0.8787414727413775  0.9469506934458188  0.9517641768639663  1.0000
  Si  Si27      1.0  0.3773117863253114  0.9475315854898994  0.5473914022409359  1.0000
  Si  Si28      1.0  0.6222038384411726  0.05401275208740651  0.45084639707786284  1.0000
  Si  Si29      1.0  0.8776634926638414  0.5555232351003463  0.9525162469616865  1.0000
  Si  Si30      1.0  0.1192445173715744  0.4458757479031946  0.050167831942674594  1.0000
  Si  Si31      1.0  0.6259073923656416  0.4436794567210099  0.44238474419737783  1.0000
  Si  Si32      1.0  0.378606280475366  0.5495045155538449  0.5530395970172234  1.0000
  Si  Si33      1.0  0.072805135330146  0.03906832507869759  0.8243244856438814  1.0000
  Si  Si34      1.0  0.9278666572168317  0.9602497524101333  0.1757265148687842  1.0000
  Si  Si35      1.0  0.42687280740948685  0.9603408191022145  0.32190642385197593  1.0000
  Si  Si36      1.0  0.5722926198981227  0.0390724397433071  0.6764947514036839  1.0000
  Si  Si37      1.0  0.9263680831448697  0.540516398134606  0.17432724029192498  1.0000
  Si  Si38      1.0  0.0701420548438403  0.45927106238492743  0.8214983171073239  1.0000
  Si  Si39      1.0  0.4277899528114166  0.5380267897528821  0.3295195213916884  1.0000
  Si  Si40      1.0  0.2005812792153764  0.0721685126943345  0.7137729755822295  1.0000
  Si  Si41      1.0  0.799584370408449  0.9271512501663761  0.2854053915431157  1.0000
  Si  Si42      1.0  0.2980865337445699  0.9289160441287552  0.21225521420658486  1.0000
  Si  Si43      1.0  0.7015551803484488  0.0726186420459839  0.7862982817706208  1.0000
  Si  Si44      1.0  0.7977793807531632  0.5714244796112615  0.2848496613264109  1.0000
  Si  Si45      1.0  0.1945401601875306  0.42982167359873635  0.7100694852597861  1.0000
  Si  Si46      1.0  0.7126853616288003  0.4255624961927951  0.7975434837652476  1.0000
  Si  Si47      1.0  0.3005050150271481  0.5726215446927814  0.2169368090474788  1.0000
  Si  Si48      1.0  0.4220053332690677  0.8278393704732142  0.6849439843885335  1.0000
  Si  Si49      1.0  0.5764798508138439  0.17081162362611194  0.3105319137195948  1.0000
  Si  Si50      1.0  0.0752381832084007  0.1718087277887492  0.1883662076706109  1.0000
  Si  Si51      1.0  0.9234858449188654  0.829101568272191  0.8136064735051627  1.0000
  Si  Si52      1.0  0.577845695417798  0.32703867963845795  0.30358084388540746  1.0000
  Si  Si53      1.0  0.42274000260297245  0.672446593860572  0.6865731333195473  1.0000
  Si  Si54      1.0  0.9257426377401254  0.6731740392635432  0.8109438891883777  1.0000
  Si  Si55      1.0  0.074947403942311  0.32815440438722904  0.1896332408424588  1.0000
  Si  Si56      1.0  0.3160487216186622  0.8744451213409139  0.8332071043769074  1.0000
  Si  Si57      1.0  0.6837993284661823  0.12610069487521758  0.16319249569322528  1.0000
  Si  Si58      1.0  0.1829587536435529  0.1261545809673866  0.33444566815176535  1.0000
  Si  Si59      1.0  0.8164231285947839  0.8753821947419489  0.6650838073918234  1.0000
  Si  Si60      1.0  0.6820242682056379  0.37512582134560113  0.1635407273826118  1.0000
  Si  Si61      1.0  0.3158672415828846  0.6258445174893118  0.8340682290386354  1.0000
  Si  Si62      1.0  0.8189194782686021  0.6263966612636733  0.6656930001999196  1.0000
  Si  Si63      1.0  0.1839886693865786  0.3745703198838994  0.3346597179525154  1.0000
  Si  Si64      1.0  0.2718062008274538  0.8279211563512068  0.0383387844988344  1.0000
  Si  Si65      1.0  0.7303007828623037  0.17301156713741567  0.9585555488355406  1.0000
  Si  Si66      1.0  0.2258561325778427  0.1734859227767441  0.5403359770858018  1.0000
  Si  Si67      1.0  0.7739614349206113  0.8273159449632437  0.46030070283824825  1.0000
  Si  Si68      1.0  0.7390533795847812  0.3268893154499611  0.9684409748735281  1.0000
  Si  Si69      1.0  0.2741440519536909  0.671928674498177  0.040880573910033094  1.0000
  Si  Si70      1.0  0.7729975900916359  0.6716395529813542  0.46086743406447916  1.0000
  Si  Si71      1.0  0.22641516073125964  0.3281876114278348  0.5389554658696109  1.0000
  Si  Si72      1.0  0.11680957558423571  0.826931200891372  0.024828417098872298  1.0000
  Si  Si73      1.0  0.886328284348614  0.1699420572642069  0.9743295256464294  1.0000
  Si  Si74      1.0  0.3816043407126662  0.1711662783558365  0.5235343820344455  1.0000
  Si  Si75      1.0  0.6185838314080658  0.8288569825225605  0.4743590067504446  1.0000
  Si  Si76      1.0  0.8888245717342516  0.3245610550309018  0.981729406013896  1.0000
  Si  Si77      1.0  0.1179786308732981  0.6702202164392664  0.025230835785893697  1.0000
  Si  Si78      1.0  0.6178169733628425  0.6724478296785786  0.4748638711024836  1.0000
  Si  Si79      1.0  0.3801442350162241  0.32594835137027095  0.5204064955958165  1.0000
  Si  Si80      1.0  0.0691277294626473  0.8801315606326076  0.8164928577285566  1.0000
  Si  Si81      1.0  0.9305452876408247  0.11784035835023011  0.18368641473840297  1.0000
  Si  Si82      1.0  0.4297499480177013  0.11866709219542658  0.31550949492742547  1.0000
  Si  Si83      1.0  0.5688845185704346  0.8795698628125824  0.6837357549835432  1.0000
  Si  Si84      1.0  0.9326025822467607  0.3814070894637111  0.18429894497036198  1.0000
  Si  Si85      1.0  0.0704133780424183  0.6187953704941479  0.8140076956527396  1.0000
  Si  Si86      1.0  0.5701252199093219  0.6267379015470232  0.6851662392499417  1.0000
  Si  Si87      1.0  0.4312271701139928  0.3804583319393865  0.3161771376307023  1.0000
  Si  Si88      1.0  0.1944128745434227  0.8278052842940754  0.7016897321337756  1.0000
  Si  Si89      1.0  0.8045192296074527  0.1733059307425264  0.2949231843458012  1.0000
  Si  Si90      1.0  0.3043532562851197  0.1723397684067569  0.2020958093206158  1.0000
  Si  Si91      1.0  0.6956877721949603  0.8297107737920273  0.7973227381919178  1.0000
  Si  Si92      1.0  0.8052367102256517  0.3286459992802817  0.2973983669155508  1.0000
  Si  Si93      1.0  0.19666734260652793  0.6727116280527684  0.7004416169468604  1.0000
  Si  Si94      1.0  0.6968930124339815  0.675525600407106  0.7959668923642117  1.0000
  Si  Si95      1.0  0.3051970426817303  0.3278164474028724  0.20400751854487656  1.0000
  Hf  Hf1       1.0  0.571951638675252  0.45271077006962107  0.6893358135968889  1.0000
