
#======================================================================
# CRYSTAL DATA
#----------------------------------------------------------------------
data_VESTA_phase_1

_chemical_name_common                  'Al-FUM-14H20-ALLP21C                  '
_cell_length_a                         6.684978
_cell_length_b                         13.231324
_cell_length_c                         13.961535
_cell_angle_alpha                      90.000000
_cell_angle_beta                       129.557358
_cell_angle_gamma                      90.000000
_cell_volume                           952.102519
_space_group_name_H-M_alt              'P 1'
_space_group_IT_number                 1

loop_
_space_group_symop_operation_xyz
   'x, y, z'

loop_
   _atom_site_label
   _atom_site_occupancy
   _atom_site_fract_x
   _atom_site_fract_y
   _atom_site_fract_z
   _atom_site_adp_type
   _atom_site_U_iso_or_equiv
   _atom_site_type_symbol
   O1         1.0     0.150842     0.499778     0.925259    Uiso  ? O
   O2         1.0     0.233225     0.396639     0.114822    Uiso  ? O
   O3         1.0     0.573738     0.395126     0.114828    Uiso  ? O
   O4         1.0     0.425976     0.103327     0.384254    Uiso  ? O
   O5         1.0     0.767743     0.103091     0.385792    Uiso  ? O
   O6         1.0     0.849158     0.999778     0.574741    Uiso  ? O
   O7         1.0     0.766775     0.896639     0.385178    Uiso  ? O
   O8         1.0     0.426262     0.895126     0.385172    Uiso  ? O
   O9         1.0     0.574024     0.603327     0.115746    Uiso  ? O
   O10        1.0     0.232257     0.603091     0.114208    Uiso  ? O
   O11        1.0     0.849158     0.500222     0.074741    Uiso  ? O
   O12        1.0     0.766775     0.603361     0.885178    Uiso  ? O
   O13        1.0     0.426262     0.604874     0.885172    Uiso  ? O
   O14        1.0     0.574024     0.896673     0.615746    Uiso  ? O
   O15        1.0     0.232257     0.896909     0.614208    Uiso  ? O
   O16        1.0     0.150842     0.000222     0.425259    Uiso  ? O
   O17        1.0     0.233225     0.103361     0.614822    Uiso  ? O
   O18        1.0     0.573738     0.104874     0.614828    Uiso  ? O
   O19        1.0     0.425976     0.396673     0.884254    Uiso  ? O
   O20        1.0     0.767743     0.396909     0.885792    Uiso  ? O
   C1         1.0     0.444825     0.361101     0.146572    Uiso  ? C
   C2         1.0     0.557387     0.271701     0.229699    Uiso  ? C
   C3         1.0     0.440425     0.226744     0.268516    Uiso  ? C
   C4         1.0     0.554161     0.137982     0.352360    Uiso  ? C
   C5         1.0     0.555175     0.861101     0.353428    Uiso  ? C
   C6         1.0     0.442613     0.771701     0.270301    Uiso  ? C
   C7         1.0     0.559575     0.726744     0.231484    Uiso  ? C
   C8         1.0     0.445839     0.637982     0.147640    Uiso  ? C
   C9         1.0     0.555175     0.638899     0.853428    Uiso  ? C
   C10        1.0     0.442613     0.728299     0.770301    Uiso  ? C
   C11        1.0     0.559575     0.773256     0.731484    Uiso  ? C
   C12        1.0     0.445839     0.862018     0.647640    Uiso  ? C
   C13        1.0     0.444825     0.138899     0.646572    Uiso  ? C
   C14        1.0     0.557387     0.228299     0.729699    Uiso  ? C
   C15        1.0     0.440425     0.273256     0.768516    Uiso  ? C
   C16        1.0     0.554161     0.362018     0.852360    Uiso  ? C
   H1         1.0     0.258382     0.743560     0.241704    Uiso  ? H
   H2         1.0     0.256414     0.244792     0.739916    Uiso  ? H
   H3         1.0     0.035610     0.480938     0.838393    Uiso  ? H
   H4         1.0     0.741618     0.243560     0.258296    Uiso  ? H
   H5         1.0     0.743586     0.744792     0.760084    Uiso  ? H
   H6         1.0     0.964390     0.980938     0.661607    Uiso  ? H
   H7         1.0     0.741618     0.256440     0.758296    Uiso  ? H
   H8         1.0     0.743586     0.755208     0.260084    Uiso  ? H
   H9         1.0     0.964390     0.519062     0.161607    Uiso  ? H
   H10        1.0     0.258382     0.756440     0.741704    Uiso  ? H
   H11        1.0     0.256414     0.255208     0.239916    Uiso  ? H
   H12        1.0     0.035610     0.019062     0.338393    Uiso  ? H
   Al1        1.0     0.500000     0.500000     0.000000    Uiso  ? Al
   Al2        1.0     0.500000     -0.000000     0.500000    Uiso  ? Al
   Al3        1.0     -0.000000     0.500000     0.000000    Uiso  ? Al
   Al4        1.0     -0.000000     -0.000000     0.500000    Uiso  ? Al
