
#======================================================================
# CRYSTAL DATA
#----------------------------------------------------------------------
data_VESTA_phase_1

_chemical_name_common                  'Al16 O80 C128 H80'
_cell_length_a                         21.578362
_cell_length_b                         21.581421
_cell_length_c                         10.081990
_cell_angle_alpha                      90.002594
_cell_angle_beta                       90.019783
_cell_angle_gamma                      89.981422
_cell_volume                           4695.098665
_space_group_name_H-M_alt              'P 1'
_space_group_IT_number                 1

loop_
_space_group_symop_operation_xyz
   'x, y, z'

loop_
   _atom_site_label
   _atom_site_occupancy
   _atom_site_fract_x
   _atom_site_fract_y
   _atom_site_fract_z
   _atom_site_adp_type
   _atom_site_U_iso_or_equiv
   _atom_site_type_symbol
   Al0        1.0     0.321126     0.001166     0.995345    Uiso  ? Al
   Al1        1.0     0.678635     0.001568     0.994792    Uiso  ? Al
   Al2        1.0     0.178996     0.998160     0.495028    Uiso  ? Al
   Al3        1.0     0.820998     0.998697     0.494814    Uiso  ? Al
   Al4        1.0     0.249598     0.071079     0.246237    Uiso  ? Al
   Al5        1.0     0.749417     0.928894     0.746004    Uiso  ? Al
   Al6        1.0     0.250142     0.928385     0.747215    Uiso  ? Al
   Al7        1.0     0.750410     0.071451     0.245928    Uiso  ? Al
   Al8        1.0     0.821089     0.498911     0.504821    Uiso  ? Al
   Al9        1.0     0.178985     0.498378     0.505834    Uiso  ? Al
   Al10       1.0     0.678955     0.501562     0.004776    Uiso  ? Al
   Al11       1.0     0.321343     0.500938     0.005494    Uiso  ? Al
   Al12       1.0     0.750062     0.571628     0.753346    Uiso  ? Al
   Al13       1.0     0.250487     0.428524     0.254272    Uiso  ? Al
   Al14       1.0     0.750083     0.428858     0.253164    Uiso  ? Al
   Al15       1.0     0.249510     0.571052     0.755102    Uiso  ? Al
   O16        1.0     0.256255     0.009041     0.117292    Uiso  ? O
   O17        1.0     0.740877     0.994611     0.866138    Uiso  ? O
   O18        1.0     0.243731     0.990195     0.617418    Uiso  ? O
   O19        1.0     0.758723     0.005823     0.366226    Uiso  ? O
   O20        1.0     0.241570     0.005580     0.367179    Uiso  ? O
   O21        1.0     0.755885     0.990597     0.616237    Uiso  ? O
   O22        1.0     0.258526     0.994076     0.867340    Uiso  ? O
   O23        1.0     0.743805     0.009687     0.116219    Uiso  ? O
   O24        1.0     0.758598     0.505893     0.633039    Uiso  ? O
   O25        1.0     0.244151     0.490022     0.384525    Uiso  ? O
   O26        1.0     0.741373     0.494589     0.133059    Uiso  ? O
   O27        1.0     0.255970     0.509237     0.884592    Uiso  ? O
   O28        1.0     0.743889     0.509799     0.882964    Uiso  ? O
   O29        1.0     0.259254     0.494334     0.134542    Uiso  ? O
   O30        1.0     0.756204     0.490540     0.382989    Uiso  ? O
   O31        1.0     0.241142     0.505321     0.634721    Uiso  ? O
   O32        1.0     0.384523     0.011302     0.126512    Uiso  ? O
   O33        1.0     0.615579     0.990319     0.865908    Uiso  ? O
   O34        1.0     0.115468     0.987961     0.625700    Uiso  ? O
   O35        1.0     0.884037     0.009751     0.366054    Uiso  ? O
   O36        1.0     0.239623     0.133605     0.378656    Uiso  ? O
   O37        1.0     0.760634     0.865294     0.618369    Uiso  ? O
   O38        1.0     0.259937     0.865936     0.880461    Uiso  ? O
   O39        1.0     0.739155     0.134983     0.118102    Uiso  ? O
   O40        1.0     0.116081     0.009116     0.365748    Uiso  ? O
   O41        1.0     0.884237     0.988683     0.626153    Uiso  ? O
   O42        1.0     0.383917     0.990183     0.866113    Uiso  ? O
   O43        1.0     0.615491     0.011440     0.126401    Uiso  ? O
   O44        1.0     0.260493     0.134560     0.118156    Uiso  ? O
   O45        1.0     0.739647     0.866349     0.878751    Uiso  ? O
   O46        1.0     0.239112     0.864725     0.619889    Uiso  ? O
   O47        1.0     0.760410     0.134061     0.378520    Uiso  ? O
   O48        1.0     0.883954     0.510454     0.633717    Uiso  ? O
   O49        1.0     0.115817     0.488825     0.374258    Uiso  ? O
   O50        1.0     0.616125     0.490240     0.133858    Uiso  ? O
   O51        1.0     0.384447     0.510535     0.873607    Uiso  ? O
   O52        1.0     0.738781     0.635199     0.881122    Uiso  ? O
   O53        1.0     0.260097     0.365958     0.121446    Uiso  ? O
   O54        1.0     0.761917     0.365243     0.380384    Uiso  ? O
   O55        1.0     0.240090     0.633559     0.622394    Uiso  ? O
   O56        1.0     0.615504     0.511392     0.873547    Uiso  ? O
   O57        1.0     0.384423     0.489661     0.134077    Uiso  ? O
   O58        1.0     0.884525     0.489321     0.373636    Uiso  ? O
   O59        1.0     0.115761     0.509918     0.634214    Uiso  ? O
   O60        1.0     0.759357     0.634049     0.620195    Uiso  ? O
   O61        1.0     0.238787     0.364857     0.381418    Uiso  ? O
   O62        1.0     0.740334     0.366376     0.120343    Uiso  ? O
   O63        1.0     0.260685     0.634622     0.883066    Uiso  ? O
   O64        1.0     0.337104     0.071027     0.282353    Uiso  ? O
   O65        1.0     0.662046     0.926513     0.717000    Uiso  ? O
   O66        1.0     0.162648     0.929012     0.783285    Uiso  ? O
   O67        1.0     0.837695     0.073646     0.217129    Uiso  ? O
   O68        1.0     0.178741     0.085808     0.531934    Uiso  ? O
   O69        1.0     0.822748     0.911434     0.465858    Uiso  ? O
   O70        1.0     0.321581     0.913760     0.032244    Uiso  ? O
   O71        1.0     0.676625     0.088843     0.966242    Uiso  ? O
   O72        1.0     0.162353     0.073155     0.217180    Uiso  ? O
   O73        1.0     0.836889     0.929435     0.782841    Uiso  ? O
   O74        1.0     0.337475     0.925950     0.718059    Uiso  ? O
   O75        1.0     0.662927     0.071093     0.282383    Uiso  ? O
   O76        1.0     0.322917     0.088359     0.966310    Uiso  ? O
   O77        1.0     0.678638     0.914107     0.031809    Uiso  ? O
   O78        1.0     0.177834     0.910841     0.465621    Uiso  ? O
   O79        1.0     0.821165     0.086202     0.532014    Uiso  ? O
   O80        1.0     0.837268     0.574548     0.781697    Uiso  ? O
   O81        1.0     0.162941     0.429733     0.216910    Uiso  ? O
   O82        1.0     0.662671     0.426285     0.282428    Uiso  ? O
   O83        1.0     0.336896     0.570747     0.718801    Uiso  ? O
   O84        1.0     0.676871     0.588816     0.033675    Uiso  ? O
   O85        1.0     0.321165     0.413582     0.968415    Uiso  ? O
   O86        1.0     0.823329     0.411654     0.533950    Uiso  ? O
   O87        1.0     0.179400     0.585927     0.468472    Uiso  ? O
   O88        1.0     0.662665     0.571029     0.717294    Uiso  ? O
   O89        1.0     0.338010     0.425991     0.283296    Uiso  ? O
   O90        1.0     0.837597     0.430081     0.216247    Uiso  ? O
   O91        1.0     0.162315     0.573655     0.783087    Uiso  ? O
   O92        1.0     0.820743     0.586413     0.467602    Uiso  ? O
   O93        1.0     0.176989     0.411032     0.534608    Uiso  ? O
   O94        1.0     0.678968     0.414072     0.967744    Uiso  ? O
   O95        1.0     0.323774     0.588240     0.033490    Uiso  ? O
   C96        1.0     0.444188     0.076866     0.432551    Uiso  ? C
   C97        1.0     0.555483     0.921837     0.563617    Uiso  ? C
   C98        1.0     0.055634     0.924764     0.933744    Uiso  ? C
   C99        1.0     0.944189     0.079066     0.064843    Uiso  ? C
   C100       1.0     0.174836     0.192292     0.685822    Uiso  ? C
   C101       1.0     0.827092     0.804535     0.314524    Uiso  ? C
   C102       1.0     0.330362     0.807039     0.182482    Uiso  ? C
   C103       1.0     0.671626     0.195830     0.815414    Uiso  ? C
   C104       1.0     0.055864     0.078743     0.064696    Uiso  ? C
   C105       1.0     0.943943     0.924990     0.933865    Uiso  ? C
   C106       1.0     0.443776     0.921739     0.563760    Uiso  ? C
   C107       1.0     0.555885     0.076774     0.432668    Uiso  ? C
   C108       1.0     0.328632     0.195416     0.816082    Uiso  ? C
   C109       1.0     0.672688     0.807561     0.184023    Uiso  ? C
   C110       1.0     0.175492     0.803925     0.313440    Uiso  ? C
   C111       1.0     0.825792     0.192834     0.685240    Uiso  ? C
   C112       1.0     0.943933     0.582059     0.932809    Uiso  ? C
   C113       1.0     0.056104     0.427625     0.064299    Uiso  ? C
   C114       1.0     0.556378     0.422918     0.437283    Uiso  ? C
   C115       1.0     0.443768     0.577806     0.569010    Uiso  ? C
   C116       1.0     0.671654     0.695882     0.184408    Uiso  ? C
   C117       1.0     0.327708     0.307078     0.816748    Uiso  ? C
   C118       1.0     0.827100     0.304528     0.685466    Uiso  ? C
   C119       1.0     0.176349     0.692242     0.314095    Uiso  ? C
   C120       1.0     0.555448     0.578000     0.568689    Uiso  ? C
   C121       1.0     0.444670     0.422640     0.437487    Uiso  ? C
   C122       1.0     0.944395     0.427843     0.064089    Uiso  ? C
   C123       1.0     0.055590     0.581587     0.933176    Uiso  ? C
   C124       1.0     0.825837     0.692862     0.314597    Uiso  ? C
   C125       1.0     0.173860     0.303974     0.686399    Uiso  ? C
   C126       1.0     0.672848     0.307497     0.815660    Uiso  ? C
   C127       1.0     0.331870     0.695377     0.182223    Uiso  ? C
   C128       1.0     0.444041     0.052575     0.303416    Uiso  ? C
   C129       1.0     0.555635     0.946477     0.692436    Uiso  ? C
   C130       1.0     0.055786     0.948021     0.803735    Uiso  ? C
   C131       1.0     0.944083     0.053767     0.193057    Uiso  ? C
   C132       1.0     0.197940     0.192501     0.555739    Uiso  ? C
   C133       1.0     0.802727     0.804957     0.443566    Uiso  ? C
   C134       1.0     0.303909     0.806884     0.055270    Uiso  ? C
   C135       1.0     0.696325     0.195392     0.944195    Uiso  ? C
   C136       1.0     0.055968     0.053464     0.192946    Uiso  ? C
   C137       1.0     0.943791     0.948256     0.803868    Uiso  ? C
   C138       1.0     0.443726     0.946363     0.692582    Uiso  ? C
   C139       1.0     0.556018     0.052546     0.303478    Uiso  ? C
   C140       1.0     0.303495     0.194947     0.944447    Uiso  ? C
   C141       1.0     0.697212     0.807364     0.055107    Uiso  ? C
   C142       1.0     0.198362     0.804385     0.443752    Uiso  ? C
   C143       1.0     0.802644     0.193026     0.555128    Uiso  ? C
   C144       1.0     0.943832     0.555728     0.805541    Uiso  ? C
   C145       1.0     0.056258     0.449855     0.195121    Uiso  ? C
   C146       1.0     0.556355     0.446711     0.307756    Uiso  ? C
   C147       1.0     0.443795     0.552644     0.697375    Uiso  ? C
   C148       1.0     0.696275     0.695442     0.055598    Uiso  ? C
   C149       1.0     0.302680     0.306859     0.945232    Uiso  ? C
   C150       1.0     0.803843     0.304979     0.555456    Uiso  ? C
   C151       1.0     0.199178     0.692460     0.444444    Uiso  ? C
   C152       1.0     0.555737     0.552868     0.697087    Uiso  ? C
   C153       1.0     0.444416     0.446447     0.307981    Uiso  ? C
   C154       1.0     0.944241     0.450085     0.194916    Uiso  ? C
   C155       1.0     0.055688     0.555295     0.805851    Uiso  ? C
   C156       1.0     0.801602     0.693045     0.443751    Uiso  ? C
   C157       1.0     0.197045     0.304448     0.556363    Uiso  ? C
   C158       1.0     0.697455     0.307307     0.944536    Uiso  ? C
   C159       1.0     0.305102     0.694971     0.055345    Uiso  ? C
   C160       1.0     0.384214     0.043947     0.231958    Uiso  ? C
   C161       1.0     0.615439     0.955406     0.763544    Uiso  ? C
   C162       1.0     0.115644     0.955964     0.732052    Uiso  ? C
   C163       1.0     0.884271     0.044736     0.263836    Uiso  ? C
   C164       1.0     0.206426     0.132945     0.483319    Uiso  ? C
   C165       1.0     0.794463     0.864909     0.514402    Uiso  ? C
   C166       1.0     0.293952     0.866516     0.983964    Uiso  ? C
   C167       1.0     0.704954     0.135393     0.014646    Uiso  ? C
   C168       1.0     0.115795     0.044224     0.263711    Uiso  ? C
   C169       1.0     0.883957     0.956442     0.732143    Uiso  ? C
   C170       1.0     0.384026     0.955122     0.764004    Uiso  ? C
   C171       1.0     0.615826     0.044005     0.231964    Uiso  ? C
   C172       1.0     0.294670     0.134951     0.014727    Uiso  ? C
   C173       1.0     0.706246     0.866935     0.983108    Uiso  ? C
   C174       1.0     0.205956     0.864351     0.514889    Uiso  ? C
   C175       1.0     0.793718     0.133425     0.483080    Uiso  ? C
   C176       1.0     0.884028     0.545875     0.735250    Uiso  ? C
   C177       1.0     0.116034     0.457049     0.267607    Uiso  ? C
   C178       1.0     0.616070     0.455339     0.236227    Uiso  ? C
   C179       1.0     0.384057     0.543557     0.768719    Uiso  ? C
   C180       1.0     0.704902     0.635475     0.985011    Uiso  ? C
   C181       1.0     0.293543     0.366451     0.017154    Uiso  ? C
   C182       1.0     0.795516     0.364978     0.484758    Uiso  ? C
   C183       1.0     0.207208     0.632961     0.517250    Uiso  ? C
   C184       1.0     0.615637     0.544027     0.768097    Uiso  ? C
   C185       1.0     0.384577     0.454928     0.236708    Uiso  ? C
   C186       1.0     0.884438     0.457441     0.267127    Uiso  ? C
   C187       1.0     0.115569     0.545206     0.735966    Uiso  ? C
   C188       1.0     0.792825     0.633484     0.515933    Uiso  ? C
   C189       1.0     0.205121     0.364475     0.485645    Uiso  ? C
   C190       1.0     0.706672     0.366920     0.016307    Uiso  ? C
   C191       1.0     0.295502     0.634948     0.985574    Uiso  ? C
   C192       1.0     0.500026     0.039137     0.239974    Uiso  ? C
   C193       1.0     0.499692     0.960196     0.755666    Uiso  ? C
   C194       1.0     0.999788     0.961103     0.739892    Uiso  ? C
   C195       1.0     0.000018     0.039561     0.255928    Uiso  ? C
   C196       1.0     0.210452     0.248658     0.492141    Uiso  ? C
   C197       1.0     0.788615     0.749173     0.507023    Uiso  ? C
   C198       1.0     0.289922     0.750760     0.992973    Uiso  ? C
   C199       1.0     0.710546     0.251162     0.007652    Uiso  ? C
   C200       1.0     0.289204     0.250704     0.007877    Uiso  ? C
   C201       1.0     0.710377     0.751219     0.992088    Uiso  ? C
   C202       1.0     0.211644     0.748606     0.508116    Uiso  ? C
   C203       1.0     0.790379     0.249186     0.491316    Uiso  ? C
   C204       1.0     0.999744     0.541072     0.743153    Uiso  ? C
   C205       1.0     0.000252     0.462522     0.259270    Uiso  ? C
   C206       1.0     0.500315     0.459945     0.244316    Uiso  ? C
   C207       1.0     0.499845     0.538934     0.760333    Uiso  ? C
   C208       1.0     0.500038     0.087824     0.497890    Uiso  ? C
   C209       1.0     0.499614     0.910741     0.498407    Uiso  ? C
   C210       1.0     0.999797     0.914405     0.999490    Uiso  ? C
   C211       1.0     0.000025     0.090327     0.999775    Uiso  ? C
   C212       1.0     0.163994     0.247971     0.751873    Uiso  ? C
   C213       1.0     0.837423     0.748560     0.249237    Uiso  ? C
   C214       1.0     0.343301     0.751336     0.246680    Uiso  ? C
   C215       1.0     0.661086     0.251817     0.750345    Uiso  ? C
   C216       1.0     0.339547     0.251419     0.751418    Uiso  ? C
   C217       1.0     0.661061     0.751878     0.249411    Uiso  ? C
   C218       1.0     0.165747     0.747924     0.247860    Uiso  ? C
   C219       1.0     0.836898     0.248527     0.751054    Uiso  ? C
   C220       1.0     0.999774     0.593842     0.997506    Uiso  ? C
   C221       1.0     0.000248     0.417852     0.998104    Uiso  ? C
   C222       1.0     0.500592     0.412144     0.502972    Uiso  ? C
   C223       1.0     0.499535     0.589362     0.503920    Uiso  ? C
   H224       1.0     0.499958     0.519356     0.859856    Uiso  ? H
   H225       1.0     0.499421     0.607917     0.403361    Uiso  ? H
   H226       1.0     0.399508     0.588441     0.522213    Uiso  ? H
   H227       1.0     0.599583     0.588787     0.521617    Uiso  ? H
   H228       1.0     0.500700     0.394976     0.604653    Uiso  ? H
   H229       1.0     0.500206     0.478733     0.144091    Uiso  ? H
   H230       1.0     0.500024     0.020197     0.139882    Uiso  ? H
   H231       1.0     0.500041     0.105619     0.599077    Uiso  ? H
   H232       1.0     0.600076     0.087085     0.480068    Uiso  ? H
   H233       1.0     0.400004     0.087289     0.479835    Uiso  ? H
   H234       1.0     0.600665     0.412884     0.484608    Uiso  ? H
   H235       1.0     0.400490     0.412373     0.484957    Uiso  ? H
   H236       1.0     0.165399     0.147979     0.733492    Uiso  ? H
   H237       1.0     0.163647     0.348057     0.734331    Uiso  ? H
   H238       1.0     0.147351     0.247721     0.853936    Uiso  ? H
   H239       1.0     0.853647     0.248285     0.853071    Uiso  ? H
   H240       1.0     0.660674     0.151732     0.768309    Uiso  ? H
   H241       1.0     0.662859     0.351809     0.768488    Uiso  ? H
   H242       1.0     0.835069     0.148526     0.733114    Uiso  ? H
   H243       1.0     0.837406     0.348608     0.733316    Uiso  ? H
   H244       1.0     0.643067     0.252070     0.649326    Uiso  ? H
   H245       1.0     0.339643     0.151325     0.768996    Uiso  ? H
   H246       1.0     0.337990     0.351398     0.769946    Uiso  ? H
   H247       1.0     0.357928     0.251699     0.650726    Uiso  ? H
   H248       1.0     0.228677     0.248890     0.391453    Uiso  ? H
   H249       1.0     0.499693     0.979611     0.855342    Uiso  ? H
   H250       1.0     0.599704     0.911356     0.516523    Uiso  ? H
   H251       1.0     0.399527     0.911208     0.516787    Uiso  ? H
   H252       1.0     0.499600     0.892863     0.397279    Uiso  ? H
   H253       1.0     0.899756     0.915143     0.981678    Uiso  ? H
   H254       1.0     0.999813     0.897496     0.101362    Uiso  ? H
   H255       1.0     0.999763     0.979345     0.639207    Uiso  ? H
   H256       1.0     0.900228     0.418304     0.015842    Uiso  ? H
   H257       1.0     0.000253     0.480000     0.360575    Uiso  ? H
   H258       1.0     0.000243     0.401823     0.895579    Uiso  ? H
   H259       1.0     0.000007     0.019692     0.355200    Uiso  ? H
   H260       1.0     0.899947     0.089915     0.018170    Uiso  ? H
   H261       1.0     0.000021     0.108783     0.899137    Uiso  ? H
   H262       1.0     0.769530     0.749387     0.606976    Uiso  ? H
   H263       1.0     0.837969     0.848631     0.267354    Uiso  ? H
   H264       1.0     0.835716     0.648554     0.267288    Uiso  ? H
   H265       1.0     0.855140     0.748342     0.147998    Uiso  ? H
   H266       1.0     0.660803     0.651786     0.231606    Uiso  ? H
   H267       1.0     0.662644     0.851873     0.231147    Uiso  ? H
   H268       1.0     0.643105     0.752132     0.350457    Uiso  ? H
   H269       1.0     0.269123     0.750557     0.894570    Uiso  ? H
   H270       1.0     0.729652     0.750972     0.892303    Uiso  ? H
   H271       1.0     0.165331     0.848010     0.265457    Uiso  ? H
   H272       1.0     0.166878     0.647930     0.266430    Uiso  ? H
   H273       1.0     0.149285     0.747670     0.145637    Uiso  ? H
   H274       1.0     0.229657     0.748843     0.609001    Uiso  ? H
   H275       1.0     0.899683     0.593273     0.978990    Uiso  ? H
   H276       1.0     0.999692     0.520482     0.644558    Uiso  ? H
   H277       1.0     0.999802     0.613190     0.097384    Uiso  ? H
   H278       1.0     0.099853     0.592415     0.979726    Uiso  ? H
   H279       1.0     0.099811     0.914719     0.981478    Uiso  ? H
   H280       1.0     0.100105     0.089336     0.017850    Uiso  ? H
   H281       1.0     0.100264     0.417930     0.016207    Uiso  ? H
   H282       1.0     0.269557     0.250432     0.107331    Uiso  ? H
   H283       1.0     0.729851     0.250911     0.107443    Uiso  ? H
   H284       1.0     0.720640     0.497910     0.583987    Uiso  ? H
   H285       1.0     0.748218     0.528671     0.334571    Uiso  ? H
   H286       1.0     0.779370     0.502575     0.084200    Uiso  ? H
   H287       1.0     0.252343     0.528262     0.336690    Uiso  ? H
   H288       1.0     0.279205     0.497127     0.586248    Uiso  ? H
   H289       1.0     0.251367     0.028337     0.666039    Uiso  ? H
   H290       1.0     0.220606     0.001765     0.916715    Uiso  ? H
   H291       1.0     0.778916     0.002699     0.914822    Uiso  ? H
   H292       1.0     0.747819     0.028771     0.664419    Uiso  ? H
   H293       1.0     0.751710     0.471709     0.834272    Uiso  ? H
   H294       1.0     0.247950     0.471136     0.836104    Uiso  ? H
   H295       1.0     0.221200     0.502516     0.085949    Uiso  ? H
   H296       1.0     0.279557     0.997900     0.416355    Uiso  ? H
   H297       1.0     0.248805     0.970981     0.166325    Uiso  ? H
   H298       1.0     0.720662     0.997767     0.414783    Uiso  ? H
   H299       1.0     0.751799     0.971512     0.164462    Uiso  ? H
   H300       1.0     0.340956     0.851338     0.229080    Uiso  ? H
   H301       1.0     0.363012     0.751551     0.346250    Uiso  ? H
   H302       1.0     0.343761     0.651263     0.228234    Uiso  ? H
   H303       1.0     0.772239     0.249432     0.390538    Uiso  ? H
