
#======================================================================
# CRYSTAL DATA
#----------------------------------------------------------------------
data_VESTA_phase_1

_chemical_name_common                  'cau-10-ch3-some-h-p1                  '
_cell_length_a                         21.556992
_cell_length_b                         21.557978
_cell_length_c                         9.909557
_cell_angle_alpha                      89.992119
_cell_angle_beta                       89.973526
_cell_angle_gamma                      90.004753
_cell_volume                           4605.219904
_space_group_name_H-M_alt              'P 1'
_space_group_IT_number                 1

loop_
_space_group_symop_operation_xyz
   'x, y, z'

loop_
   _atom_site_label
   _atom_site_occupancy
   _atom_site_fract_x
   _atom_site_fract_y
   _atom_site_fract_z
   _atom_site_adp_type
   _atom_site_U_iso_or_equiv
   _atom_site_type_symbol
   O1         1.0     0.385632     0.012410     0.133454    Uiso  ? O
   O2         1.0     0.613957     0.988265     0.865463    Uiso  ? O
   O3         1.0     0.114053     0.987707     0.633689    Uiso  ? O
   O4         1.0     0.885800     0.011798     0.365227    Uiso  ? O
   O5         1.0     0.239036     0.134635     0.387427    Uiso  ? O
   O6         1.0     0.761610     0.864131     0.615253    Uiso  ? O
   O7         1.0     0.260597     0.865418     0.887449    Uiso  ? O
   O8         1.0     0.738086     0.135962     0.115598    Uiso  ? O
   O9         1.0     0.115461     0.010562     0.366861    Uiso  ? O
   O10        1.0     0.884082     0.988258     0.631508    Uiso  ? O
   O11        1.0     0.384148     0.989462     0.866770    Uiso  ? O
   O12        1.0     0.615668     0.011825     0.131576    Uiso  ? O
   O13        1.0     0.262147     0.135314     0.120885    Uiso  ? O
   O14        1.0     0.738066     0.865781     0.881590    Uiso  ? O
   O15        1.0     0.237563     0.864769     0.620823    Uiso  ? O
   O16        1.0     0.761607     0.134277     0.381706    Uiso  ? O
   O17        1.0     0.884505     0.510587     0.638302    Uiso  ? O
   O18        1.0     0.114860     0.488848     0.370893    Uiso  ? O
   O19        1.0     0.615397     0.489529     0.138353    Uiso  ? O
   O20        1.0     0.384948     0.511268     0.870601    Uiso  ? O
   O21        1.0     0.737802     0.635873     0.884391    Uiso  ? O
   O22        1.0     0.261069     0.364968     0.120643    Uiso  ? O
   O23        1.0     0.761990     0.364329     0.384629    Uiso  ? O
   O24        1.0     0.238729     0.635123     0.620647    Uiso  ? O
   O25        1.0     0.614682     0.512536     0.871814    Uiso  ? O
   O26        1.0     0.384808     0.488398     0.137313    Uiso  ? O
   O27        1.0     0.885226     0.487686     0.371636    Uiso  ? O
   O28        1.0     0.115051     0.511613     0.637722    Uiso  ? O
   O29        1.0     0.760614     0.634461     0.617522    Uiso  ? O
   O30        1.0     0.238242     0.365162     0.387465    Uiso  ? O
   O31        1.0     0.739220     0.365689     0.117980    Uiso  ? O
   O32        1.0     0.261601     0.634918     0.887398    Uiso  ? O
   O33        1.0     0.338506     0.074705     0.287288    Uiso  ? O
   O34        1.0     0.660800     0.924254     0.714230    Uiso  ? O
   O35        1.0     0.161124     0.925300     0.787347    Uiso  ? O
   O36        1.0     0.838929     0.075822     0.214115    Uiso  ? O
   O37        1.0     0.174069     0.087347     0.535716    Uiso  ? O
   O38        1.0     0.825621     0.910988     0.463964    Uiso  ? O
   O39        1.0     0.325505     0.912728     0.035719    Uiso  ? O
   O40        1.0     0.674240     0.089133     0.964105    Uiso  ? O
   O41        1.0     0.163848     0.072943     0.214197    Uiso  ? O
   O42        1.0     0.835346     0.928217     0.787688    Uiso  ? O
   O43        1.0     0.335794     0.927118     0.714126    Uiso  ? O
   O44        1.0     0.664331     0.071692     0.288047    Uiso  ? O
   O45        1.0     0.322217     0.087456     0.963197    Uiso  ? O
   O46        1.0     0.678143     0.914548     0.037936    Uiso  ? O
   O47        1.0     0.177397     0.912599     0.463337    Uiso  ? O
   O48        1.0     0.821682     0.085539     0.537688    Uiso  ? O
   O49        1.0     0.837323     0.575755     0.786283    Uiso  ? O
   O50        1.0     0.162765     0.427284     0.215966    Uiso  ? O
   O51        1.0     0.662538     0.424586     0.286816    Uiso  ? O
   O52        1.0     0.337088     0.572857     0.715719    Uiso  ? O
   O53        1.0     0.675449     0.588788     0.038240    Uiso  ? O
   O54        1.0     0.322686     0.412904     0.965801    Uiso  ? O
   O55        1.0     0.824507     0.411335     0.538098    Uiso  ? O
   O56        1.0     0.177091     0.587176     0.466006    Uiso  ? O
   O57        1.0     0.662601     0.572614     0.714218    Uiso  ? O
   O58        1.0     0.337452     0.424908     0.288419    Uiso  ? O
   O59        1.0     0.837316     0.427533     0.214285    Uiso  ? O
   O60        1.0     0.162345     0.575158     0.788679    Uiso  ? O
   O61        1.0     0.823002     0.586020     0.464996    Uiso  ? O
   O62        1.0     0.174849     0.412473     0.538799    Uiso  ? O
   O63        1.0     0.677041     0.414162     0.965196    Uiso  ? O
   O64        1.0     0.325022     0.587611     0.038592    Uiso  ? O
   O65        1.0     0.259913     0.007246     0.132298    Uiso  ? O
   O66        1.0     0.738296     0.994604     0.862325    Uiso  ? O
   O67        1.0     0.239709     0.992843     0.632323    Uiso  ? O
   O68        1.0     0.761504     0.005390     0.362255    Uiso  ? O
   O69        1.0     0.243276     0.009008     0.382319    Uiso  ? O
   O70        1.0     0.755271     0.988446     0.612297    Uiso  ? O
   O71        1.0     0.256321     0.990989     0.882456    Uiso  ? O
   O72        1.0     0.744529     0.011684     0.112294    Uiso  ? O
   O73        1.0     0.758942     0.506610     0.633213    Uiso  ? O
   O74        1.0     0.242666     0.491018     0.382757    Uiso  ? O
   O75        1.0     0.741003     0.493532     0.133219    Uiso  ? O
   O76        1.0     0.257160     0.509089     0.882736    Uiso  ? O
   O77        1.0     0.742825     0.510202     0.883124    Uiso  ? O
   O78        1.0     0.258919     0.492790     0.132730    Uiso  ? O
   O79        1.0     0.757140     0.490036     0.383139    Uiso  ? O
   O80        1.0     0.240897     0.507322     0.632759    Uiso  ? O
   C1         1.0     0.445763     0.080124     0.441697    Uiso  ? C
   C2         1.0     0.553850     0.920269     0.557589    Uiso  ? C
   C3         1.0     0.053751     0.919726     0.941700    Uiso  ? C
   C4         1.0     0.945963     0.079570     0.057041    Uiso  ? C
   C5         1.0     0.169176     0.194061     0.693923    Uiso  ? C
   C6         1.0     0.829516     0.803940     0.307320    Uiso  ? C
   C7         1.0     0.330560     0.806003     0.193788    Uiso  ? C
   C8         1.0     0.670222     0.196282     0.807802    Uiso  ? C
   C9         1.0     0.057136     0.077814     0.056343    Uiso  ? C
   C10        1.0     0.942592     0.921351     0.942619    Uiso  ? C
   C11        1.0     0.442688     0.921995     0.556655    Uiso  ? C
   C12        1.0     0.556930     0.078482     0.442783    Uiso  ? C
   C13        1.0     0.327387     0.194812     0.808967    Uiso  ? C
   C14        1.0     0.671357     0.807285     0.193039    Uiso  ? C
   C15        1.0     0.172230     0.805258     0.309122    Uiso  ? C
   C16        1.0     0.828842     0.192760     0.692512    Uiso  ? C
   C17        1.0     0.943993     0.580628     0.944417    Uiso  ? C
   C18        1.0     0.055831     0.422550     0.059886    Uiso  ? C
   C19        1.0     0.555665     0.419594     0.444527    Uiso  ? C
   C20        1.0     0.444191     0.577594     0.559700    Uiso  ? C
   C21        1.0     0.669964     0.696127     0.192539    Uiso  ? C
   C22        1.0     0.327455     0.305987     0.809502    Uiso  ? C
   C23        1.0     0.830276     0.303912     0.692057    Uiso  ? C
   C24        1.0     0.172265     0.694089     0.309683    Uiso  ? C
   C25        1.0     0.555371     0.577695     0.559687    Uiso  ? C
   C26        1.0     0.444502     0.419452     0.444578    Uiso  ? C
   C27        1.0     0.944659     0.422363     0.059732    Uiso  ? C
   C28        1.0     0.055162     0.580667     0.944837    Uiso  ? C
   C29        1.0     0.827967     0.692771     0.306922    Uiso  ? C
   C30        1.0     0.169271     0.305229     0.694641    Uiso  ? C
   C31        1.0     0.671874     0.307452     0.807475    Uiso  ? C
   C32        1.0     0.330584     0.694831     0.194415    Uiso  ? C
   C33        1.0     0.445406     0.055883     0.310419    Uiso  ? C
   C34        1.0     0.554247     0.944373     0.688996    Uiso  ? C
   C35        1.0     0.054203     0.944097     0.810524    Uiso  ? C
   C36        1.0     0.945472     0.055567     0.188548    Uiso  ? C
   C37        1.0     0.193552     0.193974     0.562706    Uiso  ? C
   C38        1.0     0.805516     0.804422     0.438832    Uiso  ? C
   C39        1.0     0.306127     0.806095     0.062662    Uiso  ? C
   C40        1.0     0.694348     0.195737     0.939155    Uiso  ? C
   C41        1.0     0.057091     0.054037     0.188076    Uiso  ? C
   C42        1.0     0.942561     0.945462     0.811116    Uiso  ? C
   C43        1.0     0.442629     0.945854     0.688295    Uiso  ? C
   C44        1.0     0.557063     0.054497     0.311194    Uiso  ? C
   C45        1.0     0.303488     0.194441     0.940601    Uiso  ? C
   C46        1.0     0.695408     0.807330     0.061494    Uiso  ? C
   C47        1.0     0.196190     0.805637     0.440673    Uiso  ? C
   C48        1.0     0.804514     0.192767     0.561232    Uiso  ? C
   C49        1.0     0.943888     0.556150     0.813325    Uiso  ? C
   C50        1.0     0.055967     0.446498     0.191456    Uiso  ? C
   C51        1.0     0.555889     0.444016     0.313347    Uiso  ? C
   C52        1.0     0.443949     0.553739     0.691369    Uiso  ? C
   C53        1.0     0.694229     0.695688     0.061239    Uiso  ? C
   C54        1.0     0.303447     0.306106     0.941081    Uiso  ? C
   C55        1.0     0.805739     0.304412     0.561062    Uiso  ? C
   C56        1.0     0.196282     0.693976     0.441200    Uiso  ? C
   C57        1.0     0.555627     0.553883     0.691412    Uiso  ? C
   C58        1.0     0.444256     0.443830     0.313409    Uiso  ? C
   C59        1.0     0.944306     0.446292     0.191343    Uiso  ? C
   C60        1.0     0.055520     0.556219     0.813711    Uiso  ? C
   C61        1.0     0.804160     0.692806     0.438661    Uiso  ? C
   C62        1.0     0.193604     0.305609     0.563398    Uiso  ? C
   C63        1.0     0.695778     0.307361     0.939083    Uiso  ? C
   C64        1.0     0.306200     0.694459     0.063264    Uiso  ? C
   C65        1.0     0.385509     0.046812     0.238597    Uiso  ? C
   C66        1.0     0.614050     0.953149     0.761380    Uiso  ? C
   C67        1.0     0.114138     0.953237     0.738743    Uiso  ? C
   C68        1.0     0.885673     0.046887     0.261083    Uiso  ? C
   C69        1.0     0.203137     0.134307     0.490256    Uiso  ? C
   C70        1.0     0.796736     0.864237     0.511145    Uiso  ? C
   C71        1.0     0.296480     0.865763     0.990249    Uiso  ? C
   C72        1.0     0.703079     0.135882     0.011385    Uiso  ? C
   C73        1.0     0.116502     0.044796     0.261680    Uiso  ? C
   C74        1.0     0.883005     0.955029     0.738137    Uiso  ? C
   C75        1.0     0.383144     0.955189     0.761672    Uiso  ? C
   C76        1.0     0.616683     0.044958     0.238325    Uiso  ? C
   C77        1.0     0.294966     0.134700     0.013594    Uiso  ? C
   C78        1.0     0.704914     0.866879     0.988359    Uiso  ? C
   C79        1.0     0.204709     0.865372     0.513641    Uiso  ? C
   C80        1.0     0.794881     0.133212     0.488225    Uiso  ? C
   C81        1.0     0.884223     0.546563     0.740961    Uiso  ? C
   C82        1.0     0.115566     0.455206     0.264811    Uiso  ? C
   C83        1.0     0.615633     0.453642     0.241183    Uiso  ? C
   C84        1.0     0.384288     0.544974     0.764590    Uiso  ? C
   C85        1.0     0.703368     0.635777     0.989527    Uiso  ? C
   C86        1.0     0.294745     0.365691     0.014564    Uiso  ? C
   C87        1.0     0.796534     0.364373     0.489534    Uiso  ? C
   C88        1.0     0.205028     0.634395     0.514681    Uiso  ? C
   C89        1.0     0.615326     0.545364     0.764549    Uiso  ? C
   C90        1.0     0.384496     0.453295     0.241372    Uiso  ? C
   C91        1.0     0.884583     0.454809     0.264458    Uiso  ? C
   C92        1.0     0.115324     0.546741     0.741726    Uiso  ? C
   C93        1.0     0.794884     0.633397     0.512378    Uiso  ? C
   C94        1.0     0.203158     0.365436     0.491579    Uiso  ? C
   C95        1.0     0.705058     0.366770     0.012746    Uiso  ? C
   C96        1.0     0.296687     0.634646     0.991436    Uiso  ? C
   C97        1.0     0.501219     0.115895     0.652458    Uiso  ? C
   C98        1.0     0.498182     0.884801     0.346671    Uiso  ? C
   C99        1.0     0.998159     0.883745     0.152272    Uiso  ? C
   C100       1.0     0.001839     0.114849     0.846085    Uiso  ? C
   C101       1.0     0.132866     0.249423     0.904784    Uiso  ? C
   C102       1.0     0.864860     0.748127     0.096456    Uiso  ? C
   C103       1.0     0.367046     0.750591     0.404430    Uiso  ? C
   C104       1.0     0.634597     0.252221     0.597333    Uiso  ? C
   C105       1.0     0.364300     0.250537     0.599211    Uiso  ? C
   C106       1.0     0.633904     0.751764     0.402940    Uiso  ? C
   C107       1.0     0.135384     0.749483     0.099434    Uiso  ? C
   C108       1.0     0.866735     0.248249     0.902006    Uiso  ? C
   C109       1.0     0.999363     0.617284     0.154853    Uiso  ? C
   C110       1.0     0.000390     0.385699     0.849710    Uiso  ? C
   C111       1.0     0.500016     0.382957     0.654854    Uiso  ? C
   C112       1.0     0.499791     0.614215     0.349442    Uiso  ? C
   C113       1.0     0.501169     0.041845     0.245652    Uiso  ? C
   C114       1.0     0.498527     0.958512     0.753736    Uiso  ? C
   C115       1.0     0.998497     0.958170     0.745714    Uiso  ? C
   C116       1.0     0.001137     0.041439     0.253428    Uiso  ? C
   C117       1.0     0.207164     0.249877     0.498104    Uiso  ? C
   C118       1.0     0.791476     0.748751     0.503877    Uiso  ? C
   C119       1.0     0.292550     0.750199     0.998076    Uiso  ? C
   C120       1.0     0.708481     0.251381     0.004173    Uiso  ? C
   C121       1.0     0.290128     0.250208     0.005981    Uiso  ? C
   C122       1.0     0.708171     0.751392     0.996200    Uiso  ? C
   C123       1.0     0.209575     0.749878     0.506048    Uiso  ? C
   C124       1.0     0.791638     0.248728     0.496131    Uiso  ? C
   C125       1.0     0.999776     0.542557     0.748636    Uiso  ? C
   C126       1.0     0.000081     0.459721     0.256525    Uiso  ? C
   C127       1.0     0.500065     0.457515     0.248440    Uiso  ? C
   C128       1.0     0.499789     0.540543     0.756577    Uiso  ? C
   C129       1.0     0.501358     0.090687     0.510849    Uiso  ? C
   C130       1.0     0.498224     0.909886     0.488379    Uiso  ? C
   C131       1.0     0.998108     0.909078     0.010737    Uiso  ? C
   C132       1.0     0.001658     0.089876     0.987907    Uiso  ? C
   C133       1.0     0.157854     0.249562     0.762954    Uiso  ? C
   C134       1.0     0.839927     0.748249     0.238325    Uiso  ? C
   C135       1.0     0.341963     0.750496     0.262721    Uiso  ? C
   C136       1.0     0.659776     0.252006     0.738939    Uiso  ? C
   C137       1.0     0.338756     0.250470     0.740563    Uiso  ? C
   C138       1.0     0.659224     0.751769     0.261392    Uiso  ? C
   C139       1.0     0.160898     0.749602     0.240762    Uiso  ? C
   C140       1.0     0.841124     0.248245     0.760760    Uiso  ? C
   C141       1.0     0.999514     0.592091     0.013225    Uiso  ? C
   C142       1.0     0.000294     0.411139     0.991129    Uiso  ? C
   C143       1.0     0.500097     0.408111     0.513182    Uiso  ? C
   C144       1.0     0.499787     0.588908     0.490974    Uiso  ? C
   H1         1.0     0.598178     0.909722     0.509724    Uiso  ? H
   H2         1.0     0.401413     0.090662     0.489461    Uiso  ? H
   H3         1.0     0.901677     0.090091     0.009040    Uiso  ? H
   H4         1.0     0.098080     0.909158     0.989463    Uiso  ? H
   H5         1.0     0.337427     0.350385     0.761374    Uiso  ? H
   H6         1.0     0.659568     0.651804     0.240568    Uiso  ? H
   H7         1.0     0.162313     0.649681     0.261621    Uiso  ? H
   H8         1.0     0.840841     0.348221     0.739924    Uiso  ? H
   H9         1.0     0.898133     0.912159     0.991265    Uiso  ? H
   H10        1.0     0.101596     0.086880     0.007594    Uiso  ? H
   H11        1.0     0.601345     0.087598     0.491572    Uiso  ? H
   H12        1.0     0.398259     0.912921     0.507871    Uiso  ? H
   H13        1.0     0.159386     0.349577     0.743052    Uiso  ? H
   H14        1.0     0.837130     0.648319     0.258294    Uiso  ? H
   H15        1.0     0.340525     0.650489     0.242816    Uiso  ? H
   H16        1.0     0.662732     0.351934     0.758949    Uiso  ? H
   H17        1.0     0.100234     0.412699     0.011629    Uiso  ? H
   H18        1.0     0.899537     0.590569     0.992353    Uiso  ? H
   H19        1.0     0.399833     0.587413     0.511301    Uiso  ? H
   H20        1.0     0.600073     0.409740     0.492654    Uiso  ? H
   H21        1.0     0.839940     0.848239     0.259207    Uiso  ? H
   H22        1.0     0.159211     0.149603     0.741799    Uiso  ? H
   H23        1.0     0.659678     0.152012     0.759736    Uiso  ? H
   H24        1.0     0.340478     0.850457     0.241692    Uiso  ? H
   H25        1.0     0.400100     0.409464     0.492711    Uiso  ? H
   H26        1.0     0.599724     0.587591     0.511271    Uiso  ? H
   H27        1.0     0.099517     0.590647     0.993088    Uiso  ? H
   H28        1.0     0.900332     0.412366     0.011373    Uiso  ? H
   H29        1.0     0.662149     0.851730     0.241649    Uiso  ? H
   H30        1.0     0.337250     0.150498     0.760403    Uiso  ? H
   H31        1.0     0.838214     0.148285     0.740853    Uiso  ? H
   H32        1.0     0.162280     0.849572     0.260635    Uiso  ? H
   H33        1.0     0.248999     0.528069     0.328407    Uiso  ? H
   H34        1.0     0.250776     0.472033     0.828470    Uiso  ? H
   H35        1.0     0.745286     0.026430     0.660538    Uiso  ? H
   H36        1.0     0.249381     0.028165     0.828887    Uiso  ? H
   H37        1.0     0.749622     0.472867     0.830013    Uiso  ? H
   H38        1.0     0.750483     0.527366     0.329914    Uiso  ? H
   H39        1.0     0.222576     0.000544     0.079132    Uiso  ? H
   H40        1.0     0.723519     0.995200     0.410324    Uiso  ? H
   H41        1.0     0.277091     0.999577     0.579262    Uiso  ? H
   H42        1.0     0.776282     0.004610     0.910507    Uiso  ? H
   H43        1.0     0.221870     0.499161     0.078449    Uiso  ? H
   H44        1.0     0.277972     0.500961     0.578496    Uiso  ? H
   H45        1.0     0.250081     0.971897     0.328457    Uiso  ? H
   H46        1.0     0.754692     0.973699     0.160347    Uiso  ? H
   H47        1.0     0.721804     0.499697     0.579561    Uiso  ? H
   H48        1.0     0.778133     0.500425     0.079444    Uiso  ? H
   H49        1.0     0.542327     0.100850     0.708977    Uiso  ? H
   H50        1.0     0.457097     0.900052     0.290332    Uiso  ? H
   H51        1.0     0.956548     0.897952     0.208150    Uiso  ? H
   H52        1.0     0.043114     0.099778     0.790111    Uiso  ? H
   H53        1.0     0.147944     0.290644     0.960893    Uiso  ? H
   H54        1.0     0.850436     0.706481     0.041054    Uiso  ? H
   H55        1.0     0.351677     0.709552     0.460861    Uiso  ? H
   H56        1.0     0.649224     0.293729     0.541635    Uiso  ? H
   H57        1.0     0.960784     0.099542     0.789694    Uiso  ? H
   H58        1.0     0.038859     0.899698     0.209034    Uiso  ? H
   H59        1.0     0.539435     0.899826     0.290518    Uiso  ? H
   H60        1.0     0.459988     0.100691     0.708470    Uiso  ? H
   H61        1.0     0.349966     0.292074     0.543282    Uiso  ? H
   H62        1.0     0.648476     0.710245     0.458679    Uiso  ? H
   H63        1.0     0.150305     0.708253     0.043140    Uiso  ? H
   H64        1.0     0.851725     0.289453     0.958301    Uiso  ? H
   H65        1.0     0.041203     0.603373     0.210187    Uiso  ? H
   H66        1.0     0.959082     0.400399     0.793444    Uiso  ? H
   H67        1.0     0.459969     0.399952     0.712465    Uiso  ? H
   H68        1.0     0.541358     0.599848     0.293607    Uiso  ? H
   H69        1.0     0.649482     0.792565     0.459852    Uiso  ? H
   H70        1.0     0.348810     0.209733     0.542190    Uiso  ? H
   H71        1.0     0.851813     0.207117     0.958662    Uiso  ? H
   H72        1.0     0.150365     0.790596     0.042773    Uiso  ? H
   H73        1.0     0.459021     0.598523     0.292578    Uiso  ? H
   H74        1.0     0.542213     0.396251     0.709599    Uiso  ? H
   H75        1.0     0.041429     0.400961     0.793128    Uiso  ? H
   H76        1.0     0.958908     0.600901     0.211956    Uiso  ? H
   H77        1.0     0.848855     0.788782     0.039579    Uiso  ? H
   H78        1.0     0.148276     0.208316     0.960883    Uiso  ? H
   H79        1.0     0.650165     0.211405     0.540436    Uiso  ? H
   H80        1.0     0.352023     0.791882     0.460387    Uiso  ? H
   H81        1.0     0.772520     0.748884     0.605651    Uiso  ? H
   H82        1.0     0.915935     0.749197     0.096632    Uiso  ? H
   H83        1.0     0.582816     0.752352     0.402123    Uiso  ? H
   H84        1.0     0.418135     0.750380     0.404060    Uiso  ? H
   H85        1.0     0.084294     0.749505     0.100891    Uiso  ? H
   H86        1.0     0.228442     0.750002     0.607871    Uiso  ? H
   H87        1.0     0.498071     0.833714     0.347232    Uiso  ? H
   H88        1.0     0.498949     0.665296     0.350508    Uiso  ? H
   H89        1.0     0.727247     0.751313     0.894526    Uiso  ? H
   H90        1.0     0.273091     0.750053     0.896769    Uiso  ? H
   H91        1.0     0.271244     0.250085     0.107826    Uiso  ? H
   H92        1.0     0.727516     0.251213     0.105840    Uiso  ? H
   H93        1.0     0.501079     0.166985     0.651745    Uiso  ? H
   H94        1.0     0.497647     0.331927     0.654451    Uiso  ? H
   H95        1.0     0.501179     0.022780     0.143988    Uiso  ? H
   H96        1.0     0.498548     0.977544     0.855425    Uiso  ? H
   H97        1.0     0.499781     0.521742     0.858487    Uiso  ? H
   H98        1.0     0.500038     0.476923     0.147057    Uiso  ? H
   H99        1.0     0.000993     0.022498     0.355205    Uiso  ? H
   H100       1.0    -0.000000     0.478556     0.358399    Uiso  ? H
   H101       1.0     0.998553     0.977276     0.644082    Uiso  ? H
   H102       1.0     0.999888     0.523123     0.647293    Uiso  ? H
   H103       1.0     0.415386     0.249791     0.600702    Uiso  ? H
   H104       1.0     0.081777     0.249201     0.904734    Uiso  ? H
   H105       1.0     0.917827     0.248364     0.900593    Uiso  ? H
   H106       1.0     0.583513     0.251588     0.598128    Uiso  ? H
   H107       1.0     0.772375     0.248851     0.394659    Uiso  ? H
   H108       1.0     0.226551     0.250038     0.396691    Uiso  ? H
   H109       1.0     0.001651     0.165934     0.846445    Uiso  ? H
   H110       1.0     0.999317     0.832668     0.151473    Uiso  ? H
   H111       1.0     0.997781     0.668347     0.154355    Uiso  ? H
   H112       1.0     0.000749     0.334614     0.851017    Uiso  ? H
   Al1        1.0     0.322583     0.000047     0.003077    Uiso  ? Al
   Al2        1.0     0.677271     0.001675     0.995093    Uiso  ? Al
   Al3        1.0     0.177087     1.000018     0.503091    Uiso  ? Al
   Al4        1.0     0.822522     0.998434     0.494954    Uiso  ? Al
   Al5        1.0     0.251256     0.072519     0.254960    Uiso  ? Al
   Al6        1.0     0.748221     0.927374     0.744974    Uiso  ? Al
   Al7        1.0     0.248347     0.927525     0.754992    Uiso  ? Al
   Al8        1.0     0.751444     0.072679     0.245171    Uiso  ? Al
   Al9        1.0     0.822416     0.498583     0.505748    Uiso  ? Al
   Al10       1.0     0.177343     0.499686     0.505589    Uiso  ? Al
   Al11       1.0     0.677521     0.501584     0.005836    Uiso  ? Al
   Al12       1.0     0.322473     0.500405     0.005435    Uiso  ? Al
   Al13       1.0     0.750011     0.572862     0.753890    Uiso  ? Al
   Al14       1.0     0.250255     0.427466     0.255477    Uiso  ? Al
   Al15       1.0     0.749869     0.427346     0.254087    Uiso  ? Al
   Al16       1.0     0.249563     0.572629     0.755452    Uiso  ? Al
