
#======================================================================
# CRYSTAL DATA
#----------------------------------------------------------------------
data_VESTA_phase_1

_chemical_name_common                  'cau-10-h                              '
_cell_length_a                         21.607271
_cell_length_b                         21.607075
_cell_length_c                         10.124955
_cell_angle_alpha                      89.977104
_cell_angle_beta                       90.006424
_cell_angle_gamma                      89.966911
_cell_volume                           4727.035854
_space_group_name_H-M_alt              'P 1'
_space_group_IT_number                 1

loop_
_space_group_symop_operation_xyz
   'x, y, z'

loop_
   _atom_site_label
   _atom_site_occupancy
   _atom_site_fract_x
   _atom_site_fract_y
   _atom_site_fract_z
   _atom_site_adp_type
   _atom_site_U_iso_or_equiv
   _atom_site_type_symbol
   Al1        1.0     0.320875     0.001125     0.994935    Uiso  ? Al
   Al2        1.0     0.678829     0.001657     0.994381    Uiso  ? Al
   Al3        1.0     0.179128     0.998287     0.494782    Uiso  ? Al
   Al4        1.0     0.820719     0.999000     0.493814    Uiso  ? Al
   Al5        1.0     0.249489     0.070948     0.245799    Uiso  ? Al
   Al6        1.0     0.749261     0.929275     0.745015    Uiso  ? Al
   Al7        1.0     0.250055     0.928451     0.746809    Uiso  ? Al
   Al8        1.0     0.750192     0.071553     0.245109    Uiso  ? Al
   Al9        1.0     0.820909     0.499014     0.504939    Uiso  ? Al
   Al10       1.0     0.179473     0.498537     0.506671    Uiso  ? Al
   Al11       1.0     0.679191     0.501665     0.005049    Uiso  ? Al
   Al12       1.0     0.321391     0.500851     0.006280    Uiso  ? Al
   Al13       1.0     0.750157     0.571574     0.753328    Uiso  ? Al
   Al14       1.0     0.250870     0.428759     0.255456    Uiso  ? Al
   Al15       1.0     0.750283     0.429042     0.253027    Uiso  ? Al
   Al16       1.0     0.249682     0.570958     0.756053    Uiso  ? Al
   O1         1.0     0.256487     0.008928     0.117613    Uiso  ? O
   O2         1.0     0.741168     0.994346     0.866558    Uiso  ? O
   O3         1.0     0.243482     0.990345     0.617636    Uiso  ? O
   O4         1.0     0.758231     0.006369     0.366389    Uiso  ? O
   O5         1.0     0.241515     0.005888     0.367306    Uiso  ? O
   O6         1.0     0.756228     0.991187     0.616561    Uiso  ? O
   O7         1.0     0.258325     0.993724     0.867537    Uiso  ? O
   O8         1.0     0.743362     0.009596     0.116653    Uiso  ? O
   O9         1.0     0.758486     0.506292     0.632531    Uiso  ? O
   O10        1.0     0.244100     0.490428     0.384464    Uiso  ? O
   O11        1.0     0.741694     0.494367     0.132421    Uiso  ? O
   O12        1.0     0.256496     0.509097     0.884561    Uiso  ? O
   O13        1.0     0.743678     0.509738     0.882436    Uiso  ? O
   O14        1.0     0.259179     0.493845     0.134351    Uiso  ? O
   O15        1.0     0.756532     0.490839     0.382292    Uiso  ? O
   O16        1.0     0.241710     0.505750     0.634744    Uiso  ? O
   O17        1.0     0.384371     0.011558     0.125328    Uiso  ? O
   O18        1.0     0.615636     0.990301     0.866257    Uiso  ? O
   O19        1.0     0.115444     0.987789     0.624697    Uiso  ? O
   O20        1.0     0.883521     0.010006     0.365051    Uiso  ? O
   O21        1.0     0.239260     0.133643     0.377566    Uiso  ? O
   O22        1.0     0.760267     0.865911     0.617186    Uiso  ? O
   O23        1.0     0.260037     0.865807     0.879815    Uiso  ? O
   O24        1.0     0.739022     0.134866     0.117506    Uiso  ? O
   O25        1.0     0.116217     0.009631     0.365880    Uiso  ? O
   O26        1.0     0.884095     0.988612     0.624472    Uiso  ? O
   O27        1.0     0.383492     0.990145     0.865722    Uiso  ? O
   O28        1.0     0.615524     0.011947     0.125390    Uiso  ? O
   O29        1.0     0.260666     0.134379     0.118137    Uiso  ? O
   O30        1.0     0.739187     0.866442     0.876719    Uiso  ? O
   O31        1.0     0.238903     0.864980     0.619668    Uiso  ? O
   O32        1.0     0.760334     0.134366     0.376758    Uiso  ? O
   O33        1.0     0.883914     0.510427     0.633239    Uiso  ? O
   O34        1.0     0.116239     0.488789     0.375975    Uiso  ? O
   O35        1.0     0.616557     0.490228     0.134416    Uiso  ? O
   O36        1.0     0.384533     0.510829     0.874984    Uiso  ? O
   O37        1.0     0.738842     0.635176     0.880460    Uiso  ? O
   O38        1.0     0.260788     0.365803     0.123830    Uiso  ? O
   O39        1.0     0.761950     0.365504     0.379974    Uiso  ? O
   O40        1.0     0.240014     0.633706     0.623984    Uiso  ? O
   O41        1.0     0.615642     0.511752     0.874756    Uiso  ? O
   O42        1.0     0.384541     0.489530     0.134323    Uiso  ? O
   O43        1.0     0.884399     0.489067     0.374780    Uiso  ? O
   O44        1.0     0.116454     0.509955     0.634990    Uiso  ? O
   O45        1.0     0.759596     0.634354     0.621075    Uiso  ? O
   O46        1.0     0.239406     0.365260     0.382548    Uiso  ? O
   O47        1.0     0.740510     0.366518     0.120353    Uiso  ? O
   O48        1.0     0.260784     0.634240     0.883934    Uiso  ? O
   O49        1.0     0.337047     0.070575     0.281715    Uiso  ? O
   O50        1.0     0.661902     0.927440     0.716293    Uiso  ? O
   O51        1.0     0.162509     0.929261     0.782372    Uiso  ? O
   O52        1.0     0.837521     0.073466     0.215877    Uiso  ? O
   O53        1.0     0.179085     0.085917     0.531336    Uiso  ? O
   O54        1.0     0.822189     0.911696     0.464707    Uiso  ? O
   O55        1.0     0.321364     0.913560     0.031287    Uiso  ? O
   O56        1.0     0.677204     0.088934     0.965082    Uiso  ? O
   O57        1.0     0.162240     0.073018     0.216595    Uiso  ? O
   O58        1.0     0.836870     0.929756     0.781349    Uiso  ? O
   O59        1.0     0.337342     0.926037     0.718041    Uiso  ? O
   O60        1.0     0.662687     0.071232     0.281481    Uiso  ? O
   O61        1.0     0.322350     0.088337     0.965633    Uiso  ? O
   O62        1.0     0.679023     0.914113     0.030607    Uiso  ? O
   O63        1.0     0.178082     0.910980     0.465242    Uiso  ? O
   O64        1.0     0.820712     0.086476     0.530046    Uiso  ? O
   O65        1.0     0.837435     0.574085     0.781342    Uiso  ? O
   O66        1.0     0.163141     0.429847     0.218908    Uiso  ? O
   O67        1.0     0.662951     0.426320     0.282304    Uiso  ? O
   O68        1.0     0.337143     0.570677     0.720122    Uiso  ? O
   O69        1.0     0.677646     0.588946     0.033669    Uiso  ? O
   O70        1.0     0.320937     0.413447     0.969934    Uiso  ? O
   O71        1.0     0.822541     0.411703     0.534319    Uiso  ? O
   O72        1.0     0.179829     0.586140     0.470180    Uiso  ? O
   O73        1.0     0.662667     0.570781     0.717983    Uiso  ? O
   O74        1.0     0.338349     0.426789     0.284670    Uiso  ? O
   O75        1.0     0.837813     0.430257     0.217171    Uiso  ? O
   O76        1.0     0.162446     0.573323     0.784192    Uiso  ? O
   O77        1.0     0.820545     0.586673     0.468614    Uiso  ? O
   O78        1.0     0.177790     0.411132     0.535523    Uiso  ? O
   O79        1.0     0.679187     0.414137     0.968486    Uiso  ? O
   O80        1.0     0.323365     0.588090     0.034753    Uiso  ? O
   C1         1.0     0.444116     0.076203     0.430819    Uiso  ? C
   C2         1.0     0.555297     0.922094     0.565201    Uiso  ? C
   C3         1.0     0.055331     0.924942     0.931543    Uiso  ? C
   C4         1.0     0.944289     0.078975     0.065395    Uiso  ? C
   C5         1.0     0.174565     0.192293     0.683831    Uiso  ? C
   C6         1.0     0.826647     0.804540     0.315212    Uiso  ? C
   C7         1.0     0.329702     0.806983     0.181351    Uiso  ? C
   C8         1.0     0.672248     0.196163     0.815936    Uiso  ? C
   C9         1.0     0.055781     0.078776     0.065892    Uiso  ? C
   C10        1.0     0.943782     0.925293     0.931306    Uiso  ? C
   C11        1.0     0.443768     0.921681     0.565280    Uiso  ? C
   C12        1.0     0.555650     0.076397     0.430893    Uiso  ? C
   C13        1.0     0.327852     0.195707     0.816924    Uiso  ? C
   C14        1.0     0.673256     0.807639     0.182032    Uiso  ? C
   C15        1.0     0.175486     0.803764     0.314869    Uiso  ? C
   C16        1.0     0.825744     0.192791     0.682517    Uiso  ? C
   C17        1.0     0.944006     0.581365     0.931572    Uiso  ? C
   C18        1.0     0.056371     0.427738     0.067697    Uiso  ? C
   C19        1.0     0.556623     0.422548     0.436074    Uiso  ? C
   C20        1.0     0.443919     0.576679     0.570184    Uiso  ? C
   C21        1.0     0.672521     0.696088     0.182942    Uiso  ? C
   C22        1.0     0.327057     0.307246     0.818697    Uiso  ? C
   C23        1.0     0.826685     0.304318     0.683770    Uiso  ? C
   C24        1.0     0.176524     0.692229     0.316420    Uiso  ? C
   C25        1.0     0.555468     0.576942     0.569909    Uiso  ? C
   C26        1.0     0.445079     0.422469     0.436311    Uiso  ? C
   C27        1.0     0.944842     0.427950     0.067065    Uiso  ? C
   C28        1.0     0.055492     0.581025     0.932461    Uiso  ? C
   C29        1.0     0.825748     0.693002     0.316277    Uiso  ? C
   C30        1.0     0.174042     0.303842     0.685295    Uiso  ? C
   C31        1.0     0.673193     0.307695     0.816843    Uiso  ? C
   C32        1.0     0.330665     0.695435     0.182590    Uiso  ? C
   C33        1.0     0.443974     0.052532     0.301754    Uiso  ? C
   C34        1.0     0.555410     0.946696     0.693465    Uiso  ? C
   C35        1.0     0.055621     0.947914     0.801851    Uiso  ? C
   C36        1.0     0.943997     0.053875     0.193237    Uiso  ? C
   C37        1.0     0.198012     0.192598     0.554558    Uiso  ? C
   C38        1.0     0.802414     0.805181     0.443767    Uiso  ? C
   C39        1.0     0.303824     0.806695     0.054180    Uiso  ? C
   C40        1.0     0.696678     0.195551     0.944313    Uiso  ? C
   C41        1.0     0.055809     0.053688     0.193752    Uiso  ? C
   C42        1.0     0.943706     0.948238     0.801632    Uiso  ? C
   C43        1.0     0.443588     0.946287     0.693488    Uiso  ? C
   C44        1.0     0.555867     0.052735     0.301819    Uiso  ? C
   C45        1.0     0.303037     0.194980     0.944968    Uiso  ? C
   C46        1.0     0.697449     0.807436     0.053355    Uiso  ? C
   C47        1.0     0.198430     0.804478     0.444514    Uiso  ? C
   C48        1.0     0.802145     0.193170     0.553341    Uiso  ? C
   C49        1.0     0.943971     0.555229     0.804679    Uiso  ? C
   C50        1.0     0.056457     0.449662     0.198133    Uiso  ? C
   C51        1.0     0.556648     0.446533     0.307266    Uiso  ? C
   C52        1.0     0.443916     0.552350     0.698744    Uiso  ? C
   C53        1.0     0.696755     0.695584     0.054385    Uiso  ? C
   C54        1.0     0.302341     0.306833     0.946913    Uiso  ? C
   C55        1.0     0.803177     0.305015     0.554600    Uiso  ? C
   C56        1.0     0.199413     0.692614     0.446139    Uiso  ? C
   C57        1.0     0.555802     0.552627     0.698473    Uiso  ? C
   C58        1.0     0.444813     0.446488     0.307513    Uiso  ? C
   C59        1.0     0.944525     0.449878     0.197510    Uiso  ? C
   C60        1.0     0.055775     0.554948     0.805528    Uiso  ? C
   C61        1.0     0.801552     0.693305     0.444899    Uiso  ? C
   C62        1.0     0.197519     0.304510     0.556119    Uiso  ? C
   C63        1.0     0.697656     0.307418     0.945270    Uiso  ? C
   C64        1.0     0.304741     0.694812     0.055520    Uiso  ? C
   C65        1.0     0.384141     0.043886     0.230770    Uiso  ? C
   C66        1.0     0.615292     0.955798     0.763769    Uiso  ? C
   C67        1.0     0.115541     0.955945     0.730823    Uiso  ? C
   C68        1.0     0.884023     0.044827     0.263104    Uiso  ? C
   C69        1.0     0.206446     0.133053     0.482328    Uiso  ? C
   C70        1.0     0.794046     0.865287     0.513628    Uiso  ? C
   C71        1.0     0.293929     0.866327     0.982988    Uiso  ? C
   C72        1.0     0.705203     0.135435     0.014022    Uiso  ? C
   C73        1.0     0.115733     0.044466     0.263892    Uiso  ? C
   C74        1.0     0.883890     0.956522     0.730270    Uiso  ? C
   C75        1.0     0.383810     0.955094     0.764139    Uiso  ? C
   C76        1.0     0.615703     0.044316     0.230765    Uiso  ? C
   C77        1.0     0.294404     0.134870     0.014606    Uiso  ? C
   C78        1.0     0.706300     0.866992     0.981404    Uiso  ? C
   C79        1.0     0.205986     0.864521     0.514868    Uiso  ? C
   C80        1.0     0.793350     0.133680     0.481238    Uiso  ? C
   C81        1.0     0.884128     0.545562     0.734690    Uiso  ? C
   C82        1.0     0.116304     0.456989     0.269839    Uiso  ? C
   C83        1.0     0.616381     0.455281     0.236223    Uiso  ? C
   C84        1.0     0.384216     0.543563     0.770086    Uiso  ? C
   C85        1.0     0.705353     0.635564     0.984428    Uiso  ? C
   C86        1.0     0.293599     0.366345     0.019061    Uiso  ? C
   C87        1.0     0.795030     0.365111     0.484576    Uiso  ? C
   C88        1.0     0.207422     0.633159     0.518957    Uiso  ? C
   C89        1.0     0.615708     0.544035     0.769232    Uiso  ? C
   C90        1.0     0.384911     0.455190     0.237072    Uiso  ? C
   C91        1.0     0.884545     0.457314     0.268645    Uiso  ? C
   C92        1.0     0.115855     0.545047     0.736499    Uiso  ? C
   C93        1.0     0.792841     0.633768     0.516963    Uiso  ? C
   C94        1.0     0.205795     0.364669     0.486333    Uiso  ? C
   C95        1.0     0.706851     0.367015     0.016834    Uiso  ? C
   C96        1.0     0.295293     0.634711     0.986382    Uiso  ? C
   C97        1.0     0.499953     0.039577     0.238361    Uiso  ? C
   C98        1.0     0.499454     0.960157     0.756404    Uiso  ? C
   C99        1.0     0.999717     0.960839     0.738014    Uiso  ? C
   C100       1.0    -0.000164     0.039853     0.256265    Uiso  ? C
   C101       1.0     0.210826     0.248793     0.491883    Uiso  ? C
   C102       1.0     0.788538     0.749479     0.507464    Uiso  ? C
   C103       1.0     0.290123     0.750494     0.992464    Uiso  ? C
   C104       1.0     0.710698     0.251239     0.007859    Uiso  ? C
   C105       1.0     0.288974     0.250595     0.008799    Uiso  ? C
   C106       1.0     0.710473     0.751314     0.990704    Uiso  ? C
   C107       1.0     0.211782     0.748826     0.509019    Uiso  ? C
   C108       1.0     0.789556     0.249375     0.490500    Uiso  ? C
   C109       1.0     0.999944     0.540780     0.742767    Uiso  ? C
   C110       1.0     0.000429     0.462102     0.261954    Uiso  ? C
   C111       1.0     0.500677     0.459929     0.244200    Uiso  ? C
   C112       1.0     0.499939     0.539101     0.761719    Uiso  ? C
   C113       1.0     0.499860     0.086972     0.496046    Uiso  ? C
   C114       1.0     0.499572     0.910805     0.500310    Uiso  ? C
   C115       1.0     0.999505     0.914787     0.996913    Uiso  ? C
   C116       1.0     0.000108     0.090242     0.000900    Uiso  ? C
   C117       1.0     0.163779     0.247822     0.749853    Uiso  ? C
   C118       1.0     0.837134     0.748530     0.250745    Uiso  ? C
   C119       1.0     0.342030     0.751455     0.246231    Uiso  ? C
   C120       1.0     0.661667     0.252160     0.751481    Uiso  ? C
   C121       1.0     0.338714     0.251789     0.753080    Uiso  ? C
   C122       1.0     0.661911     0.752057     0.247447    Uiso  ? C
   C123       1.0     0.165785     0.747705     0.250113    Uiso  ? C
   C124       1.0     0.836829     0.248272     0.748392    Uiso  ? C
   C125       1.0     0.999671     0.593110     0.996293    Uiso  ? C
   C126       1.0     0.000666     0.418090     0.001526    Uiso  ? C
   C127       1.0     0.500889     0.411787     0.501375    Uiso  ? C
   C128       1.0     0.499624     0.587845     0.505141    Uiso  ? C
   H1         1.0     0.500017     0.520140     0.861353    Uiso  ? H
   H2         1.0     0.499542     0.605764     0.404481    Uiso  ? H
   H3         1.0     0.399762     0.586971     0.523068    Uiso  ? H
   H4         1.0     0.599516     0.587421     0.522601    Uiso  ? H
   H5         1.0     0.500941     0.394492     0.602505    Uiso  ? H
   H6         1.0     0.500623     0.478882     0.144533    Uiso  ? H
   H7         1.0     0.500021     0.021091     0.138363    Uiso  ? H
   H8         1.0     0.499814     0.104273     0.597190    Uiso  ? H
   H9         1.0     0.599752     0.086559     0.478356    Uiso  ? H
   H10        1.0     0.399993     0.086289     0.478253    Uiso  ? H
   H11        1.0     0.600807     0.412382     0.483214    Uiso  ? H
   H12        1.0     0.400952     0.412271     0.483619    Uiso  ? H
   H13        1.0     0.164772     0.148012     0.730897    Uiso  ? H
   H14        1.0     0.163826     0.347789     0.733306    Uiso  ? H
   H15        1.0     0.146755     0.247430     0.851170    Uiso  ? H
   H16        1.0     0.853899     0.247858     0.849702    Uiso  ? H
   H17        1.0     0.661512     0.152179     0.768629    Uiso  ? H
   H18        1.0     0.663131     0.351967     0.770012    Uiso  ? H
   H19        1.0     0.835410     0.148472     0.729550    Uiso  ? H
   H20        1.0     0.837020     0.348258     0.731640    Uiso  ? H
   H21        1.0     0.643810     0.252506     0.650797    Uiso  ? H
   H22        1.0     0.338751     0.151787     0.769474    Uiso  ? H
   H23        1.0     0.337365     0.351580     0.772400    Uiso  ? H
   H24        1.0     0.356978     0.252295     0.652728    Uiso  ? H
   H25        1.0     0.229220     0.249140     0.391775    Uiso  ? H
   H26        1.0     0.499360     0.979480     0.855712    Uiso  ? H
   H27        1.0     0.599482     0.911825     0.518196    Uiso  ? H
   H28        1.0     0.399632     0.911113     0.518423    Uiso  ? H
   H29        1.0     0.499625     0.892926     0.399661    Uiso  ? H
   H30        1.0     0.899635     0.915634     0.979021    Uiso  ? H
   H31        1.0     0.999429     0.898211     0.098602    Uiso  ? H
   H32        1.0     0.999814     0.978894     0.637607    Uiso  ? H
   H33        1.0     0.900797     0.418547     0.018743    Uiso  ? H
   H34        1.0     0.000317     0.479317     0.363022    Uiso  ? H
   H35        1.0     0.000776     0.402274     0.899336    Uiso  ? H
   H36        1.0    -0.000244     0.020197     0.355294    Uiso  ? H
   H37        1.0     0.900159     0.089659     0.018527    Uiso  ? H
   H38        1.0     0.000205     0.108529     0.900549    Uiso  ? H
   H39        1.0     0.769616     0.749790     0.607138    Uiso  ? H
   H40        1.0     0.837311     0.848506     0.267682    Uiso  ? H
   H41        1.0     0.835737     0.648696     0.269547    Uiso  ? H
   H42        1.0     0.854763     0.748205     0.149868    Uiso  ? H
   H43        1.0     0.661960     0.652081     0.230410    Uiso  ? H
   H44        1.0     0.663203     0.851888     0.228986    Uiso  ? H
   H45        1.0     0.644215     0.752330     0.348260    Uiso  ? H
   H46        1.0     0.269908     0.750113     0.893967    Uiso  ? H
   H47        1.0     0.729365     0.751074     0.891030    Uiso  ? H
   H48        1.0     0.165207     0.847686     0.266675    Uiso  ? H
   H49        1.0     0.167029     0.647906     0.269396    Uiso  ? H
   H50        1.0     0.149199     0.747276     0.148453    Uiso  ? H
   H51        1.0     0.229727     0.749246     0.609497    Uiso  ? H
   H52        1.0     0.899774     0.592529     0.977457    Uiso  ? H
   H53        1.0     0.000091     0.520320     0.644505    Uiso  ? H
   H54        1.0     0.999549     0.612349     0.095822    Uiso  ? H
   H55        1.0     0.099608     0.591815     0.979176    Uiso  ? H
   H56        1.0     0.099392     0.915020     0.979442    Uiso  ? H
   H57        1.0     0.100004     0.089269     0.019340    Uiso  ? H
   H58        1.0     0.100509     0.418209     0.019809    Uiso  ? H
   H59        1.0     0.269673     0.250081     0.108124    Uiso  ? H
   H60        1.0     0.729813     0.250882     0.107352    Uiso  ? H
   H61        1.0     0.720434     0.498343     0.584256    Uiso  ? H
   H62        1.0     0.748691     0.529016     0.334275    Uiso  ? H
   H63        1.0     0.779697     0.502223     0.083901    Uiso  ? H
   H64        1.0     0.251965     0.528709     0.336912    Uiso  ? H
   H65        1.0     0.279877     0.498194     0.586522    Uiso  ? H
   H66        1.0     0.250908     0.028509     0.665895    Uiso  ? H
   H67        1.0     0.220315     0.001285     0.916272    Uiso  ? H
   H68        1.0     0.779260     0.001933     0.914966    Uiso  ? H
   H69        1.0     0.748754     0.029379     0.664683    Uiso  ? H
   H70        1.0     0.751327     0.471559     0.834348    Uiso  ? H
   H71        1.0     0.248737     0.470990     0.836337    Uiso  ? H
   H72        1.0     0.221054     0.501643     0.086139    Uiso  ? H
   H73        1.0     0.279635     0.998420     0.415813    Uiso  ? H
   H74        1.0     0.249147     0.970807     0.166153    Uiso  ? H
   H75        1.0     0.720198     0.998898     0.415121    Uiso  ? H
   H76        1.0     0.750829     0.971440     0.164993    Uiso  ? H
   H77        1.0     0.340251     0.851285     0.227488    Uiso  ? H
   H78        1.0     0.361156     0.751841     0.345861    Uiso  ? H
   H79        1.0     0.341942     0.651465     0.229506    Uiso  ? H
   H80        1.0     0.771114     0.249799     0.390431    Uiso  ? H
