
#======================================================================
# CRYSTAL DATA
#----------------------------------------------------------------------
data_VESTA_phase_1

_chemical_name_common                  'cau-10-och3                           '
_cell_length_a                         21.412773
_cell_length_b                         21.412773
_cell_length_c                         10.012340
_cell_angle_alpha                      90.000000
_cell_angle_beta                       90.000000
_cell_angle_gamma                      90.000000
_cell_volume                           4590.726320
_space_group_name_H-M_alt              'P 1'
_space_group_IT_number                 1

loop_
_space_group_symop_operation_xyz
   'x, y, z'

loop_
   _atom_site_label
   _atom_site_occupancy
   _atom_site_fract_x
   _atom_site_fract_y
   _atom_site_fract_z
   _atom_site_adp_type
   _atom_site_U_iso_or_equiv
   _atom_site_type_symbol
   Al1        1.0     0.242190     0.071963     0.294543    Uiso  ? Al
   Al2        1.0     0.757810     0.928037     0.705457    Uiso  ? Al
   Al3        1.0     0.257810     0.928037     0.794543    Uiso  ? Al
   Al4        1.0     0.742190     0.071963     0.205457    Uiso  ? Al
   Al5        1.0     0.678037     0.492190     0.544543    Uiso  ? Al
   Al6        1.0     0.321963     0.507810     0.455457    Uiso  ? Al
   Al7        1.0     0.821963     0.507810     0.044543    Uiso  ? Al
   Al8        1.0     0.178037     0.492190     0.955457    Uiso  ? Al
   Al9        1.0     0.742190     0.571963     0.794543    Uiso  ? Al
   Al10       1.0     0.257810     0.428037     0.205457    Uiso  ? Al
   Al11       1.0     0.757810     0.428037     0.294543    Uiso  ? Al
   Al12       1.0     0.242190     0.571963     0.705457    Uiso  ? Al
   Al13       1.0     0.178037     0.992190     0.044543    Uiso  ? Al
   Al14       1.0     0.821963     0.007810     0.955457    Uiso  ? Al
   Al15       1.0     0.321963     0.007810     0.544543    Uiso  ? Al
   Al16       1.0     0.678037     0.992190     0.455457    Uiso  ? Al
   O1         1.0     0.153998     0.066591     0.327896    Uiso  ? O
   O2         1.0     0.846002     0.933409     0.672104    Uiso  ? O
   O3         1.0     0.346002     0.933409     0.827896    Uiso  ? O
   O4         1.0     0.653998     0.066591     0.172104    Uiso  ? O
   O5         1.0     0.683409     0.403998     0.577896    Uiso  ? O
   O6         1.0     0.316591     0.596002     0.422104    Uiso  ? O
   O7         1.0     0.816591     0.596002     0.077896    Uiso  ? O
   O8         1.0     0.183409     0.403998     0.922104    Uiso  ? O
   O9         1.0     0.653998     0.566591     0.827896    Uiso  ? O
   O10        1.0     0.346002     0.433409     0.172104    Uiso  ? O
   O11        1.0     0.846002     0.433409     0.327896    Uiso  ? O
   O12        1.0     0.153998     0.566591     0.672104    Uiso  ? O
   O13        1.0     0.183409     0.903998     0.077896    Uiso  ? O
   O14        1.0     0.816591     0.096002     0.922104    Uiso  ? O
   O15        1.0     0.316591     0.096002     0.577896    Uiso  ? O
   O16        1.0     0.683409     0.903998     0.422104    Uiso  ? O
   O17        1.0     0.329472     0.080734     0.262052    Uiso  ? O
   O18        1.0     0.670528     0.919266     0.737948    Uiso  ? O
   O19        1.0     0.170528     0.919266     0.762052    Uiso  ? O
   O20        1.0     0.829472     0.080734     0.237948    Uiso  ? O
   O21        1.0     0.669266     0.579472     0.512052    Uiso  ? O
   O22        1.0     0.330734     0.420528     0.487948    Uiso  ? O
   O23        1.0     0.830734     0.420528     0.012052    Uiso  ? O
   O24        1.0     0.169266     0.579472     0.987948    Uiso  ? O
   O25        1.0     0.829472     0.580734     0.762052    Uiso  ? O
   O26        1.0     0.170528     0.419266     0.237948    Uiso  ? O
   O27        1.0     0.670528     0.419266     0.262052    Uiso  ? O
   O28        1.0     0.329472     0.580734     0.737948    Uiso  ? O
   O29        1.0     0.169266     0.079472     0.012052    Uiso  ? O
   O30        1.0     0.830734     0.920528     0.987948    Uiso  ? O
   O31        1.0     0.330734     0.920528     0.512052    Uiso  ? O
   O32        1.0     0.669266     0.079472     0.487948    Uiso  ? O
   O33        1.0     0.228422     0.133532     0.159906    Uiso  ? O
   O34        1.0     0.771578     0.866468     0.840094    Uiso  ? O
   O35        1.0     0.271578     0.866468     0.659906    Uiso  ? O
   O36        1.0     0.728422     0.133532     0.340094    Uiso  ? O
   O37        1.0     0.616468     0.478422     0.409906    Uiso  ? O
   O38        1.0     0.383532     0.521578     0.590094    Uiso  ? O
   O39        1.0     0.883532     0.521578     0.909906    Uiso  ? O
   O40        1.0     0.116468     0.478422     0.090094    Uiso  ? O
   O41        1.0     0.728422     0.633532     0.659906    Uiso  ? O
   O42        1.0     0.271578     0.366468     0.340094    Uiso  ? O
   O43        1.0     0.771578     0.366468     0.159906    Uiso  ? O
   O44        1.0     0.228422     0.633532     0.840094    Uiso  ? O
   O45        1.0     0.116468     0.978422     0.909906    Uiso  ? O
   O46        1.0     0.883532     0.021578     0.090094    Uiso  ? O
   O47        1.0     0.383532     0.021578     0.409906    Uiso  ? O
   O48        1.0     0.616468     0.978422     0.590094    Uiso  ? O
   O49        1.0     0.249987     0.137046     0.423495    Uiso  ? O
   O50        1.0     0.750013     0.862954     0.576505    Uiso  ? O
   O51        1.0     0.250013     0.862954     0.923495    Uiso  ? O
   O52        1.0     0.749987     0.137046     0.076505    Uiso  ? O
   O53        1.0     0.612954     0.499987     0.673495    Uiso  ? O
   O54        1.0     0.387046     0.500013     0.326505    Uiso  ? O
   O55        1.0     0.887046     0.500013     0.173495    Uiso  ? O
   O56        1.0     0.112954     0.499987     0.826505    Uiso  ? O
   O57        1.0     0.749987     0.637046     0.923495    Uiso  ? O
   O58        1.0     0.250013     0.362954     0.076505    Uiso  ? O
   O59        1.0     0.750013     0.362954     0.423495    Uiso  ? O
   O60        1.0     0.249987     0.637046     0.576505    Uiso  ? O
   O61        1.0     0.112954     0.999987     0.173495    Uiso  ? O
   O62        1.0     0.887046     0.000013     0.826505    Uiso  ? O
   O63        1.0     0.387046     0.000013     0.673495    Uiso  ? O
   O64        1.0     0.612954     0.999987     0.326505    Uiso  ? O
   O65        1.0     0.256008     0.009300     0.421132    Uiso  ? O
   O66        1.0     0.743992     0.990700     0.578868    Uiso  ? O
   O67        1.0     0.243992     0.990700     0.921132    Uiso  ? O
   O68        1.0     0.756008     0.009300     0.078868    Uiso  ? O
   O69        1.0     0.740700     0.506008     0.671132    Uiso  ? O
   O70        1.0     0.259300     0.493992     0.328868    Uiso  ? O
   O71        1.0     0.759300     0.493992     0.171132    Uiso  ? O
   O72        1.0     0.240700     0.506008     0.828868    Uiso  ? O
   O73        1.0     0.756008     0.509300     0.921132    Uiso  ? O
   O74        1.0     0.243992     0.490700     0.078868    Uiso  ? O
   O75        1.0     0.743992     0.490700     0.421132    Uiso  ? O
   O76        1.0     0.256008     0.509300     0.578868    Uiso  ? O
   O77        1.0     0.240700     0.006008     0.171132    Uiso  ? O
   O78        1.0     0.759300    -0.006008     0.828868    Uiso  ? O
   O79        1.0     0.259300    -0.006008     0.671132    Uiso  ? O
   O80        1.0     0.740700     0.006008     0.328868    Uiso  ? O
   O81        1.0     0.463934     0.111054     0.875311    Uiso  ? O
   O82        1.0     0.536066     0.888946     0.124689    Uiso  ? O
   O83        1.0     0.036066     0.888946     0.375311    Uiso  ? O
   O84        1.0     0.963934     0.111054     0.624689    Uiso  ? O
   O85        1.0     0.638946     0.713934     0.125311    Uiso  ? O
   O86        1.0     0.361054     0.286066     0.874689    Uiso  ? O
   O87        1.0     0.861054     0.286066     0.625311    Uiso  ? O
   O88        1.0     0.138946     0.713934     0.374689    Uiso  ? O
   O89        1.0     0.963934     0.611054     0.375311    Uiso  ? O
   O90        1.0     0.036066     0.388946     0.624689    Uiso  ? O
   O91        1.0     0.536066     0.388946     0.875311    Uiso  ? O
   O92        1.0     0.463934     0.611054     0.124689    Uiso  ? O
   O93        1.0     0.138946     0.213934     0.625311    Uiso  ? O
   O94        1.0     0.861054     0.786066     0.374689    Uiso  ? O
   O95        1.0     0.361054     0.786066     0.125311    Uiso  ? O
   O96        1.0     0.638946     0.213934     0.874689    Uiso  ? O
   C1         1.0     0.545078     0.051064     0.175679    Uiso  ? C
   C2         1.0     0.454922     0.948936     0.824321    Uiso  ? C
   C3         1.0     0.954922     0.948936     0.675679    Uiso  ? C
   C4         1.0     0.045078     0.051064     0.324321    Uiso  ? C
   C5         1.0     0.698936     0.795078     0.425679    Uiso  ? C
   C6         1.0     0.301064     0.204922     0.574321    Uiso  ? C
   C7         1.0     0.801064     0.204922     0.925679    Uiso  ? C
   C8         1.0     0.198936     0.795078     0.074321    Uiso  ? C
   C9         1.0     0.045078     0.551064     0.675679    Uiso  ? C
   C10        1.0     0.954922     0.448936     0.324321    Uiso  ? C
   C11        1.0     0.454922     0.448936     0.175679    Uiso  ? C
   C12        1.0     0.545078     0.551064     0.824321    Uiso  ? C
   C13        1.0     0.198936     0.295078     0.925679    Uiso  ? C
   C14        1.0     0.801064     0.704922     0.074321    Uiso  ? C
   C15        1.0     0.301064     0.704922     0.425679    Uiso  ? C
   C16        1.0     0.698936     0.295078     0.574321    Uiso  ? C
   C17        1.0     0.426315     0.082116     0.085170    Uiso  ? C
   C18        1.0     0.573685     0.917884     0.914831    Uiso  ? C
   C19        1.0     0.073685     0.917884     0.585169    Uiso  ? C
   C20        1.0     0.926315     0.082116     0.414831    Uiso  ? C
   C21        1.0     0.667884     0.676315     0.335169    Uiso  ? C
   C22        1.0     0.332116     0.323685     0.664831    Uiso  ? C
   C23        1.0     0.832116     0.323685     0.835169    Uiso  ? C
   C24        1.0     0.167884     0.676315     0.164830    Uiso  ? C
   C25        1.0     0.926315     0.582116     0.585169    Uiso  ? C
   C26        1.0     0.073685     0.417884     0.414831    Uiso  ? C
   C27        1.0     0.573685     0.417884     0.085170    Uiso  ? C
   C28        1.0     0.426315     0.582116     0.914831    Uiso  ? C
   C29        1.0     0.167884     0.176315     0.835169    Uiso  ? C
   C30        1.0     0.832116     0.823685     0.164830    Uiso  ? C
   C31        1.0     0.332116     0.823685     0.335169    Uiso  ? C
   C32        1.0     0.667884     0.176315     0.664831    Uiso  ? C
   C33        1.0     0.608786     0.037734     0.228356    Uiso  ? C
   C34        1.0     0.391214     0.962266     0.771644    Uiso  ? C
   C35        1.0     0.891214     0.962266     0.728356    Uiso  ? C
   C36        1.0     0.108786     0.037734     0.271644    Uiso  ? C
   C37        1.0     0.712266     0.858786     0.478356    Uiso  ? C
   C38        1.0     0.287734     0.141214     0.521644    Uiso  ? C
   C39        1.0     0.787734     0.141214     0.978356    Uiso  ? C
   C40        1.0     0.212266     0.858786     0.021644    Uiso  ? C
   C41        1.0     0.108786     0.537734     0.728356    Uiso  ? C
   C42        1.0     0.891214     0.462266     0.271644    Uiso  ? C
   C43        1.0     0.391214     0.462266     0.228356    Uiso  ? C
   C44        1.0     0.608786     0.537734     0.771644    Uiso  ? C
   C45        1.0     0.212266     0.358786     0.978356    Uiso  ? C
   C46        1.0     0.787734     0.641214     0.021644    Uiso  ? C
   C47        1.0     0.287734     0.641214     0.478356    Uiso  ? C
   C48        1.0     0.712266     0.358786     0.521644    Uiso  ? C
   C49        1.0     0.514473     0.120723     0.783600    Uiso  ? C
   C50        1.0     0.485527     0.879277     0.216400    Uiso  ? C
   C51        1.0     0.985527     0.879277     0.283600    Uiso  ? C
   C52        1.0     0.014473     0.120723     0.716400    Uiso  ? C
   C53        1.0     0.629277     0.764473     0.033600    Uiso  ? C
   C54        1.0     0.370723     0.235527     0.966400    Uiso  ? C
   C55        1.0     0.870723     0.235527     0.533600    Uiso  ? C
   C56        1.0     0.129277     0.764473     0.466400    Uiso  ? C
   C57        1.0     0.014473     0.620723     0.283600    Uiso  ? C
   C58        1.0     0.985527     0.379277     0.716400    Uiso  ? C
   C59        1.0     0.485527     0.379277     0.783600    Uiso  ? C
   C60        1.0     0.514473     0.620723     0.216400    Uiso  ? C
   C61        1.0     0.129277     0.264473     0.533600    Uiso  ? C
   C62        1.0     0.870723     0.735527     0.466400    Uiso  ? C
   C63        1.0     0.370723     0.735527     0.033600    Uiso  ? C
   C64        1.0     0.629277     0.264473     0.966400    Uiso  ? C
   C65        1.0     0.537685     0.075465     0.046403    Uiso  ? C
   C66        1.0     0.462315     0.924535     0.953597    Uiso  ? C
   C67        1.0     0.962315     0.924535     0.546403    Uiso  ? C
   C68        1.0     0.037685     0.075465     0.453597    Uiso  ? C
   C69        1.0     0.674535     0.787685     0.296403    Uiso  ? C
   C70        1.0     0.325465     0.212315     0.703597    Uiso  ? C
   C71        1.0     0.825465     0.212315     0.796403    Uiso  ? C
   C72        1.0     0.174535     0.787685     0.203597    Uiso  ? C
   C73        1.0     0.037685     0.575465     0.546403    Uiso  ? C
   C74        1.0     0.962315     0.424535     0.453597    Uiso  ? C
   C75        1.0     0.462315     0.424535     0.046403    Uiso  ? C
   C76        1.0     0.537685     0.575465     0.953597    Uiso  ? C
   C77        1.0     0.174535     0.287685     0.796403    Uiso  ? C
   C78        1.0     0.825465     0.712315     0.203597    Uiso  ? C
   C79        1.0     0.325465     0.712315     0.296403    Uiso  ? C
   C80        1.0     0.674535     0.287685     0.703597    Uiso  ? C
   C81        1.0     0.493812     0.041786     0.259443    Uiso  ? C
   C82        1.0     0.506188     0.958214     0.740557    Uiso  ? C
   C83        1.0     0.006188     0.958214     0.759443    Uiso  ? C
   C84        1.0    -0.006188     0.041786     0.240557    Uiso  ? C
   C85        1.0     0.708214     0.743812     0.509443    Uiso  ? C
   C86        1.0     0.291786     0.256188     0.490557    Uiso  ? C
   C87        1.0     0.791786     0.256188     0.009443    Uiso  ? C
   C88        1.0     0.208214     0.743812     0.990557    Uiso  ? C
   C89        1.0    -0.006188     0.541786     0.759443    Uiso  ? C
   C90        1.0     0.006188     0.458214     0.240557    Uiso  ? C
   C91        1.0     0.506188     0.458214     0.259443    Uiso  ? C
   C92        1.0     0.493812     0.541786     0.740557    Uiso  ? C
   C93        1.0     0.208214     0.243812     0.009443    Uiso  ? C
   C94        1.0     0.791786     0.756188     0.990557    Uiso  ? C
   C95        1.0     0.291786     0.756188     0.509443    Uiso  ? C
   C96        1.0     0.708214     0.243812     0.490557    Uiso  ? C
   C97        1.0     0.378596     0.053131     0.302089    Uiso  ? C
   C98        1.0     0.621404     0.946869     0.697911    Uiso  ? C
   C99        1.0     0.121404     0.946869     0.802089    Uiso  ? C
   C100       1.0     0.878596     0.053131     0.197911    Uiso  ? C
   C101       1.0     0.696869     0.628596     0.552089    Uiso  ? C
   C102       1.0     0.303131     0.371404     0.447911    Uiso  ? C
   C103       1.0     0.803131     0.371404     0.052089    Uiso  ? C
   C104       1.0     0.196869     0.628596     0.947911    Uiso  ? C
   C105       1.0     0.878596     0.553131     0.802089    Uiso  ? C
   C106       1.0     0.121404     0.446869     0.197911    Uiso  ? C
   C107       1.0     0.621404     0.446869     0.302089    Uiso  ? C
   C108       1.0     0.378596     0.553131     0.697911    Uiso  ? C
   C109       1.0     0.196869     0.128596     0.052089    Uiso  ? C
   C110       1.0     0.803131     0.871404     0.947911    Uiso  ? C
   C111       1.0     0.303131     0.871404     0.552089    Uiso  ? C
   C112       1.0     0.696869     0.128596     0.447911    Uiso  ? C
   C113       1.0     0.434390     0.058807     0.214200    Uiso  ? C
   C114       1.0     0.565610     0.941193     0.785800    Uiso  ? C
   C115       1.0     0.065610     0.941193     0.714200    Uiso  ? C
   C116       1.0     0.934390     0.058807     0.285800    Uiso  ? C
   C117       1.0     0.691193     0.684390     0.464200    Uiso  ? C
   C118       1.0     0.308807     0.315610     0.535800    Uiso  ? C
   C119       1.0     0.808807     0.315610     0.964200    Uiso  ? C
   C120       1.0     0.191193     0.684390     0.035800    Uiso  ? C
   C121       1.0     0.934390     0.558807     0.714200    Uiso  ? C
   C122       1.0     0.065610     0.441193     0.285800    Uiso  ? C
   C123       1.0     0.565610     0.441193     0.214200    Uiso  ? C
   C124       1.0     0.434390     0.558807     0.785800    Uiso  ? C
   C125       1.0     0.191193     0.184390     0.964200    Uiso  ? C
   C126       1.0     0.808807     0.815610     0.035800    Uiso  ? C
   C127       1.0     0.308807     0.815610     0.464200    Uiso  ? C
   C128       1.0     0.691193     0.184390     0.535800    Uiso  ? C
   C129       1.0     0.477652     0.089481    -0.000102    Uiso  ? C
   C130       1.0     0.522348     0.910519     0.000102    Uiso  ? C
   C131       1.0     0.022348     0.910519     0.499898    Uiso  ? C
   C132       1.0     0.977652     0.089481     0.500102    Uiso  ? C
   C133       1.0     0.660519     0.727652     0.249898    Uiso  ? C
   C134       1.0     0.339481     0.272348     0.750102    Uiso  ? C
   C135       1.0     0.839481     0.272348     0.749898    Uiso  ? C
   C136       1.0     0.160519     0.727652     0.250102    Uiso  ? C
   C137       1.0     0.977652     0.589481     0.499898    Uiso  ? C
   C138       1.0     0.022348     0.410519     0.500102    Uiso  ? C
   C139       1.0     0.522348     0.410519    -0.000102    Uiso  ? C
   C140       1.0     0.477652     0.589481     0.000102    Uiso  ? C
   C141       1.0     0.160519     0.227652     0.749898    Uiso  ? C
   C142       1.0     0.839481     0.772348     0.250102    Uiso  ? C
   C143       1.0     0.339481     0.772348     0.249898    Uiso  ? C
   C144       1.0     0.660519     0.227652     0.750102    Uiso  ? C
   H1         1.0     0.500334     0.523279     0.640316    Uiso  ? H
   H2         1.0     0.499666     0.476721     0.359684    Uiso  ? H
   H3         1.0    -0.000334     0.476721     0.140316    Uiso  ? H
   H4         1.0     0.000334     0.523279     0.859684    Uiso  ? H
   H5         1.0     0.226721     0.750334     0.890316    Uiso  ? H
   H6         1.0     0.773279     0.249666     0.109684    Uiso  ? H
   H7         1.0     0.273279     0.249666     0.390316    Uiso  ? H
   H8         1.0     0.726721     0.750334     0.609684    Uiso  ? H
   H9         1.0     0.000334     0.023279     0.140316    Uiso  ? H
   H10        1.0    -0.000334     0.976721     0.859684    Uiso  ? H
   H11        1.0     0.499666     0.976721     0.640316    Uiso  ? H
   H12        1.0     0.500334     0.023279     0.359684    Uiso  ? H
   H13        1.0     0.726721     0.250334     0.390316    Uiso  ? H
   H14        1.0     0.273279     0.749666     0.609684    Uiso  ? H
   H15        1.0     0.773279     0.749666     0.890316    Uiso  ? H
   H16        1.0     0.226721     0.250334     0.109684    Uiso  ? H
   H17        1.0     0.667070     0.328883     0.765126    Uiso  ? H
   H18        1.0     0.332930     0.671117     0.234874    Uiso  ? H
   H19        1.0     0.832930     0.671117     0.265126    Uiso  ? H
   H20        1.0     0.167070     0.328883     0.734874    Uiso  ? H
   H21        1.0     0.421117     0.917070     0.015126    Uiso  ? H
   H22        1.0     0.578883     0.082930    -0.015126    Uiso  ? H
   H23        1.0     0.078883     0.082930     0.515126    Uiso  ? H
   H24        1.0     0.921117     0.917070     0.484874    Uiso  ? H
   H25        1.0     0.167070     0.828883     0.265126    Uiso  ? H
   H26        1.0     0.832930     0.171117     0.734874    Uiso  ? H
   H27        1.0     0.332930     0.171117     0.765126    Uiso  ? H
   H28        1.0     0.667070     0.828883     0.234874    Uiso  ? H
   H29        1.0     0.921117     0.417070     0.515126    Uiso  ? H
   H30        1.0     0.078883     0.582930     0.484874    Uiso  ? H
   H31        1.0     0.578883     0.582930     0.015126    Uiso  ? H
   H32        1.0     0.421117     0.417070    -0.015126    Uiso  ? H
   H33        1.0     0.344852     0.370199     0.699289    Uiso  ? H
   H34        1.0     0.655148     0.629801     0.300711    Uiso  ? H
   H35        1.0     0.155148     0.629801     0.199289    Uiso  ? H
   H36        1.0     0.844852     0.370199     0.800711    Uiso  ? H
   H37        1.0     0.379801     0.594852     0.949289    Uiso  ? H
   H38        1.0     0.620199     0.405148     0.050711    Uiso  ? H
   H39        1.0     0.120199     0.405148     0.449289    Uiso  ? H
   H40        1.0     0.879801     0.594852     0.550711    Uiso  ? H
   H41        1.0     0.844852     0.870199     0.199289    Uiso  ? H
   H42        1.0     0.155148     0.129801     0.800711    Uiso  ? H
   H43        1.0     0.655148     0.129801     0.699289    Uiso  ? H
   H44        1.0     0.344852     0.870199     0.300711    Uiso  ? H
   H45        1.0     0.879801     0.094852     0.449289    Uiso  ? H
   H46        1.0     0.120199     0.905148     0.550711    Uiso  ? H
   H47        1.0     0.620199     0.905148     0.949289    Uiso  ? H
   H48        1.0     0.379801     0.094852     0.050711    Uiso  ? H
   H49        1.0     0.613124     0.242599     0.059003    Uiso  ? H
   H50        1.0     0.386876     0.757401     0.940997    Uiso  ? H
   H51        1.0     0.886876     0.757401     0.559003    Uiso  ? H
   H52        1.0     0.113124     0.242599     0.440996    Uiso  ? H
   H53        1.0     0.507401     0.863124     0.309004    Uiso  ? H
   H54        1.0     0.492599     0.136876     0.690997    Uiso  ? H
   H55        1.0    -0.007401     0.136876     0.809003    Uiso  ? H
   H56        1.0     0.007401     0.863124     0.190996    Uiso  ? H
   H57        1.0     0.113124     0.742599     0.559003    Uiso  ? H
   H58        1.0     0.886876     0.257401     0.440996    Uiso  ? H
   H59        1.0     0.386876     0.257401     0.059003    Uiso  ? H
   H60        1.0     0.613124     0.742599     0.940997    Uiso  ? H
   H61        1.0     0.007401     0.363124     0.809003    Uiso  ? H
   H62        1.0    -0.007401     0.636876     0.190996    Uiso  ? H
   H63        1.0     0.492599     0.636876     0.309004    Uiso  ? H
   H64        1.0     0.507401     0.363124     0.690997    Uiso  ? H
   H65        1.0     0.593957     0.297200     0.928227    Uiso  ? H
   H66        1.0     0.406043     0.702800     0.071773    Uiso  ? H
   H67        1.0     0.906043     0.702800     0.428227    Uiso  ? H
   H68        1.0     0.093957     0.297200     0.571773    Uiso  ? H
   H69        1.0     0.452800     0.843957     0.178227    Uiso  ? H
   H70        1.0     0.547200     0.156043     0.821773    Uiso  ? H
   H71        1.0     0.047200     0.156043     0.678227    Uiso  ? H
   H72        1.0     0.952800     0.843957     0.321773    Uiso  ? H
   H73        1.0     0.093957     0.797200     0.428227    Uiso  ? H
   H74        1.0     0.906043     0.202800     0.571773    Uiso  ? H
   H75        1.0     0.406043     0.202800     0.928227    Uiso  ? H
   H76        1.0     0.593957     0.797200     0.071773    Uiso  ? H
   H77        1.0     0.952800     0.343957     0.678227    Uiso  ? H
   H78        1.0     0.047200     0.656043     0.321773    Uiso  ? H
   H79        1.0     0.547200     0.656043     0.178227    Uiso  ? H
   H80        1.0     0.452800     0.343957     0.821773    Uiso  ? H
   H81        1.0     0.673260     0.289382     0.986049    Uiso  ? H
   H82        1.0     0.326740     0.710618     0.013951    Uiso  ? H
   H83        1.0     0.826740     0.710618     0.486049    Uiso  ? H
   H84        1.0     0.173260     0.289382     0.513951    Uiso  ? H
   H85        1.0     0.460618     0.923260     0.236049    Uiso  ? H
   H86        1.0     0.539382     0.076740     0.763951    Uiso  ? H
   H87        1.0     0.039382     0.076740     0.736049    Uiso  ? H
   H88        1.0     0.960618     0.923260     0.263951    Uiso  ? H
   H89        1.0     0.173260     0.789382     0.486049    Uiso  ? H
   H90        1.0     0.826740     0.210618     0.513951    Uiso  ? H
   H91        1.0     0.326740     0.210618     0.986049    Uiso  ? H
   H92        1.0     0.673260     0.789382     0.013951    Uiso  ? H
   H93        1.0     0.960618     0.423260     0.736049    Uiso  ? H
   H94        1.0     0.039382     0.576740     0.263951    Uiso  ? H
   H95        1.0     0.539382     0.576740     0.236049    Uiso  ? H
   H96        1.0     0.460618     0.423260     0.763951    Uiso  ? H
   H97        1.0     0.219522     0.500830     0.523942    Uiso  ? H
   H98        1.0     0.780478     0.499170     0.476058    Uiso  ? H
   H99        1.0     0.280478     0.499170     0.023942    Uiso  ? H
   H100       1.0     0.719522     0.500830     0.976058    Uiso  ? H
   H101       1.0     0.249170     0.469522     0.773942    Uiso  ? H
   H102       1.0     0.750830     0.530478     0.226058    Uiso  ? H
   H103       1.0     0.250830     0.530478     0.273942    Uiso  ? H
   H104       1.0     0.749170     0.469522     0.726058    Uiso  ? H
   H105       1.0     0.719522     0.000830     0.023942    Uiso  ? H
   H106       1.0     0.280478    -0.000830     0.976058    Uiso  ? H
   H107       1.0     0.780478    -0.000830     0.523942    Uiso  ? H
   H108       1.0     0.219522     0.000830     0.476058    Uiso  ? H
   H109       1.0     0.749170     0.969522     0.273942    Uiso  ? H
   H110       1.0     0.250830     0.030478     0.726058    Uiso  ? H
   H111       1.0     0.750830     0.030478     0.773942    Uiso  ? H
   H112       1.0     0.249170     0.969522     0.226058    Uiso  ? H
