
#======================================================================
# CRYSTAL DATA
#----------------------------------------------------------------------
data_VESTA_phase_1

_chemical_name_common                  'cau-11-opt                            '
_cell_length_a                         6.643088
_cell_length_b                         12.945257
_cell_length_c                         19.920769
_cell_angle_alpha                      89.990646
_cell_angle_beta                       90.016457
_cell_angle_gamma                      90.034851
_cell_volume                           1713.115721
_space_group_name_H-M_alt              'P 1'
_space_group_IT_number                 1

loop_
_space_group_symop_operation_xyz
   'x, y, z'

loop_
   _atom_site_label
   _atom_site_occupancy
   _atom_site_fract_x
   _atom_site_fract_y
   _atom_site_fract_z
   _atom_site_adp_type
   _atom_site_U_iso_or_equiv
   _atom_site_type_symbol
   Al1        1.0     0.070869     0.749696     0.247356    Uiso  ? Al
   Al2        1.0     0.924663     0.249416     0.753045    Uiso  ? Al
   Al3        1.0     0.424767     0.249423     0.747289    Uiso  ? Al
   Al4        1.0     0.571025     0.749794     0.253084    Uiso  ? Al
   O1         1.0     0.818006     0.749880     0.210380    Uiso  ? O
   O2         1.0     0.177775     0.249710     0.789984    Uiso  ? O
   O3         1.0     0.677629     0.249503     0.710244    Uiso  ? O
   O4         1.0     0.318073     0.749719     0.290015    Uiso  ? O
   O5         1.0     0.214857     0.249941     0.932488    Uiso  ? O
   O6         1.0     0.783396     0.749776     0.067606    Uiso  ? O
   O7         1.0     0.282846     0.749733     0.432900    Uiso  ? O
   O8         1.0     0.714494     0.249857     0.567832    Uiso  ? O
   O9         1.0     0.592368     0.250145     0.950576    Uiso  ? O
   O10        1.0     0.405815     0.749287     0.050105    Uiso  ? O
   O11        1.0     0.905463     0.749335     0.450653    Uiso  ? O
   O12        1.0     0.092011     0.249404     0.549978    Uiso  ? O
   O13        1.0     0.503395     0.142812     0.809413    Uiso  ? O
   O14        1.0     0.492677     0.857102     0.191422    Uiso  ? O
   O15        1.0     0.992692     0.856677     0.309277    Uiso  ? O
   O16        1.0     0.002755     0.142174     0.691397    Uiso  ? O
   O17        1.0     0.492016     0.642453     0.191524    Uiso  ? O
   O18        1.0     0.502871     0.357226     0.808646    Uiso  ? O
   O19        1.0     0.002922     0.356685     0.691524    Uiso  ? O
   O20        1.0     0.992489     0.642229     0.309011    Uiso  ? O
   O21        1.0     0.844406     0.143600     0.816268    Uiso  ? O
   O22        1.0     0.151716     0.855624     0.184245    Uiso  ? O
   O23        1.0     0.651791     0.855229     0.316395    Uiso  ? O
   O24        1.0     0.343875     0.142915     0.684650    Uiso  ? O
   O25        1.0     0.151104     0.644023     0.184150    Uiso  ? O
   O26        1.0     0.843688     0.354777     0.816376    Uiso  ? O
   O27        1.0     0.343777     0.354378     0.683794    Uiso  ? O
   O28        1.0     0.651603     0.643868     0.316342    Uiso  ? O
   S1         1.0     0.388858     0.249962     0.976812    Uiso  ? S
   S2         1.0     0.608884     0.749554     0.023525    Uiso  ? S
   S3         1.0     0.108674     0.749331     0.477142    Uiso  ? S
   S4         1.0     0.888647     0.249452     0.523616    Uiso  ? S
   C1         1.0     0.832138     0.985000     0.912463    Uiso  ? C
   C2         1.0     0.163956     0.015351     0.088591    Uiso  ? C
   C3         1.0     0.664189     0.013520     0.412972    Uiso  ? C
   C4         1.0     0.332111     0.983566     0.589270    Uiso  ? C
   C5         1.0     0.163521     0.484548     0.088334    Uiso  ? C
   C6         1.0     0.832306     0.514492     0.911991    Uiso  ? C
   C7         1.0     0.332171     0.513865     0.588227    Uiso  ? C
   C8         1.0     0.663727     0.483491     0.411555    Uiso  ? C
   C9         1.0     0.818587     0.902473     0.957171    Uiso  ? C
   C10        1.0     0.177743     0.097712     0.043732    Uiso  ? C
   C11        1.0     0.677823     0.096012     0.457720    Uiso  ? C
   C12        1.0     0.318770     0.901243     0.544419    Uiso  ? C
   C13        1.0     0.177465     0.402173     0.043520    Uiso  ? C
   C14        1.0     0.818919     0.596905     0.956808    Uiso  ? C
   C15        1.0     0.318832     0.596378     0.543491    Uiso  ? C
   C16        1.0     0.677592     0.401089     0.456361    Uiso  ? C
   C17        1.0     0.630563     0.857280     0.968644    Uiso  ? C
   C18        1.0     0.366140     0.142324     0.031866    Uiso  ? C
   C19        1.0     0.865713     0.141658     0.468816    Uiso  ? C
   C20        1.0     0.130541     0.856611     0.532393    Uiso  ? C
   C21        1.0     0.365817     0.357432     0.031953    Uiso  ? C
   C22        1.0     0.630949     0.641964     0.968455    Uiso  ? C
   C23        1.0     0.130932     0.641643     0.532062    Uiso  ? C
   C24        1.0     0.866173     0.356933     0.468456    Uiso  ? C
   C25        1.0     0.456469     0.893442     0.937075    Uiso  ? C
   C26        1.0     0.540094     0.105825     0.063388    Uiso  ? C
   C27        1.0     0.039477     0.105933     0.436854    Uiso  ? C
   C28        1.0     0.956187     0.892888     0.563734    Uiso  ? C
   C29        1.0     0.539587     0.393730     0.063734    Uiso  ? C
   C30        1.0     0.456845     0.605730     0.936846    Uiso  ? C
   C31        1.0     0.956915     0.605694     0.563827    Uiso  ? C
   C32        1.0     0.040278     0.393937     0.437271    Uiso  ? C
   C33        1.0     0.471702     0.975995     0.892778    Uiso  ? C
   C34        1.0     0.524522     0.023479     0.107839    Uiso  ? C
   C35        1.0     0.024119     0.023468     0.392525    Uiso  ? C
   C36        1.0     0.971233     0.975238     0.608180    Uiso  ? C
   C37        1.0     0.523866     0.476067     0.108156    Uiso  ? C
   C38        1.0     0.471899     0.523353     0.892424    Uiso  ? C
   C39        1.0     0.971913     0.523218     0.608170    Uiso  ? C
   C40        1.0     0.024602     0.476338     0.392868    Uiso  ? C
   C41        1.0     0.659284     0.021401     0.879877    Uiso  ? C
   C42        1.0     0.336738     0.978470     0.120969    Uiso  ? C
   C43        1.0     0.836712     0.977645     0.379979    Uiso  ? C
   C44        1.0     0.158892     0.020322     0.621411    Uiso  ? C
   C45        1.0     0.336124     0.521215     0.120975    Uiso  ? C
   C46        1.0     0.659378     0.478025     0.879425    Uiso  ? C
   C47        1.0     0.159310     0.477638     0.620915    Uiso  ? C
   C48        1.0     0.836634     0.520870     0.379477    Uiso  ? C
   C49        1.0     0.670672     0.109744     0.831361    Uiso  ? C
   C50        1.0     0.325311     0.889931     0.169379    Uiso  ? C
   C51        1.0     0.825391     0.889388     0.331402    Uiso  ? C
   C52        1.0     0.170134     0.108943     0.669663    Uiso  ? C
   C53        1.0     0.324675     0.609690     0.169376    Uiso  ? C
   C54        1.0     0.670330     0.389544     0.830984    Uiso  ? C
   C55        1.0     0.170340     0.389086     0.669235    Uiso  ? C
   C56        1.0     0.825138     0.609473     0.331131    Uiso  ? C
   H1         1.0     0.312184     0.641333     0.947972    Uiso  ? H
   H2         1.0     0.339733     0.492281     0.867100    Uiso  ? H
   H3         1.0     0.975608     0.476662     0.901881    Uiso  ? H
   H4         1.0     0.950742     0.625645     0.983532    Uiso  ? H
   H5         1.0     0.475313     0.475763     0.598204    Uiso  ? H
   H6         1.0     0.450496     0.625012     0.516656    Uiso  ? H
   H7         1.0     0.519956     0.520648     0.401078    Uiso  ? H
   H8         1.0     0.545721     0.371641     0.482710    Uiso  ? H
   H9         1.0     0.684397     0.358204     0.052751    Uiso  ? H
   H10        1.0     0.045880     0.373255     0.016743    Uiso  ? H
   H11        1.0     0.019990     0.522196     0.098394    Uiso  ? H
   H12        1.0     0.655662     0.507228     0.133639    Uiso  ? H
   H13        1.0     0.045909     0.126754     0.017189    Uiso  ? H
   H14        1.0     0.020339     0.977840     0.098883    Uiso  ? H
   H15        1.0     0.684973     0.141202     0.052171    Uiso  ? H
   H16        1.0     0.656540     0.992165     0.133082    Uiso  ? H
   H17        1.0     0.521025     0.975211     0.403221    Uiso  ? H
   H18        1.0     0.546373     0.124377     0.484757    Uiso  ? H
   H19        1.0     0.339625     0.007129     0.867473    Uiso  ? H
   H20        1.0     0.311808     0.857699     0.948137    Uiso  ? H
   H21        1.0     0.975475     0.022914     0.902410    Uiso  ? H
   H22        1.0     0.950203     0.873651     0.983931    Uiso  ? H
   H23        1.0     0.839025     0.006499     0.633309    Uiso  ? H
   H24        1.0     0.811538     0.857368     0.552356    Uiso  ? H
   H25        1.0     0.812389     0.641590     0.552881    Uiso  ? H
   H26        1.0     0.839873     0.492276     0.633614    Uiso  ? H
   H27        1.0     0.155950     0.992750     0.366901    Uiso  ? H
   H28        1.0     0.184017     0.142039     0.447607    Uiso  ? H
   H29        1.0     0.475487     0.021200     0.599732    Uiso  ? H
   H30        1.0     0.450730     0.872221     0.517973    Uiso  ? H
   H31        1.0     0.309546     0.749831     0.339006    Uiso  ? H
   H32        1.0     0.809475     0.749708     0.161385    Uiso  ? H
   H33        1.0     0.186490     0.249592     0.838971    Uiso  ? H
   H34        1.0     0.686303     0.249533     0.661257    Uiso  ? H
   H35        1.0     0.156685     0.508126     0.367907    Uiso  ? H
   H36        1.0     0.185257     0.358953     0.448766    Uiso  ? H
