
#======================================================================
# CRYSTAL DATA
#----------------------------------------------------------------------
data_VESTA_phase_1

_chemical_name_common                  'cau-59-cf3                            '
_cell_length_a                         7.454609
_cell_length_b                         21.038109
_cell_length_c                         36.392220
_cell_angle_alpha                      90.000000
_cell_angle_beta                       90.000000
_cell_angle_gamma                      90.000000
_cell_volume                           5707.423950
_space_group_name_H-M_alt              'P 1'
_space_group_IT_number                 1

loop_
_space_group_symop_operation_xyz
   'x, y, z'

loop_
   _atom_site_label
   _atom_site_occupancy
   _atom_site_fract_x
   _atom_site_fract_y
   _atom_site_fract_z
   _atom_site_adp_type
   _atom_site_U_iso_or_equiv
   _atom_site_type_symbol
   Ce1        1.0     0.706755     0.500776     0.336452    Uiso  ? Ce
   Ce2        1.0     0.293245     0.499224     0.663548    Uiso  ? Ce
   Ce3        1.0     0.793245     0.500776     0.663548    Uiso  ? Ce
   Ce4        1.0     0.206755     0.499224     0.336452    Uiso  ? Ce
   Ce5        1.0     0.793245     0.999224     0.836452    Uiso  ? Ce
   Ce6        1.0     0.206755     0.000776     0.163548    Uiso  ? Ce
   Ce7        1.0     0.706755     0.999224     0.163548    Uiso  ? Ce
   Ce8        1.0     0.293245     0.000776     0.836452    Uiso  ? Ce
   C1         1.0     0.122313     0.778369     0.522788    Uiso  ? C
   C2         1.0     0.877687     0.221631     0.477212    Uiso  ? C
   C3         1.0     0.377687     0.778369     0.477212    Uiso  ? C
   C4         1.0     0.622313     0.221631     0.522788    Uiso  ? C
   C5         1.0     0.377687     0.721631     0.022788    Uiso  ? C
   C6         1.0     0.622313     0.278369     0.977212    Uiso  ? C
   C7         1.0     0.122313     0.721631     0.977212    Uiso  ? C
   C8         1.0     0.877687     0.278369     0.022788    Uiso  ? C
   C9         1.0     0.149856     0.692702     0.472257    Uiso  ? C
   C10        1.0     0.850144     0.307298     0.527743    Uiso  ? C
   C11        1.0     0.350144     0.692702     0.527743    Uiso  ? C
   C12        1.0     0.649856     0.307298     0.472257    Uiso  ? C
   C13        1.0     0.350144     0.807298     0.972257    Uiso  ? C
   C14        1.0     0.649856     0.192702     0.027743    Uiso  ? C
   C15        1.0     0.149856     0.807298     0.027743    Uiso  ? C
   C16        1.0     0.850144     0.192702     0.972257    Uiso  ? C
   C17        1.0     0.974972     0.705385     0.460323    Uiso  ? C
   C18        1.0     0.025028     0.294615     0.539677    Uiso  ? C
   C19        1.0     0.525028     0.705385     0.539677    Uiso  ? C
   C20        1.0     0.474972     0.294615     0.460323    Uiso  ? C
   C21        1.0     0.525028     0.794615     0.960323    Uiso  ? C
   C22        1.0     0.474972     0.205385     0.039677    Uiso  ? C
   C23        1.0     0.974972     0.794615     0.039677    Uiso  ? C
   C24        1.0     0.025028     0.205385     0.960323    Uiso  ? C
   C25        1.0     0.891712     0.665377     0.435170    Uiso  ? C
   C26        1.0     0.108288     0.334623     0.564830    Uiso  ? C
   C27        1.0     0.608288     0.665377     0.564830    Uiso  ? C
   C28        1.0     0.391712     0.334623     0.435170    Uiso  ? C
   C29        1.0     0.608288     0.834623     0.935170    Uiso  ? C
   C30        1.0     0.391712     0.165377     0.064830    Uiso  ? C
   C31        1.0     0.891712     0.834623     0.064830    Uiso  ? C
   C32        1.0     0.108288     0.165377     0.935170    Uiso  ? C
   C33        1.0     0.981566     0.611724     0.421758    Uiso  ? C
   C34        1.0     0.018434     0.388276     0.578242    Uiso  ? C
   C35        1.0     0.518434     0.611724     0.578242    Uiso  ? C
   C36        1.0     0.481566     0.388276     0.421758    Uiso  ? C
   C37        1.0     0.518434     0.888276     0.921758    Uiso  ? C
   C38        1.0     0.481566     0.111724     0.078242    Uiso  ? C
   C39        1.0     0.981566     0.888276     0.078242    Uiso  ? C
   C40        1.0     0.018434     0.111724     0.921758    Uiso  ? C
   C41        1.0     0.157059     0.598960     0.433488    Uiso  ? C
   C42        1.0     0.842941     0.401040     0.566512    Uiso  ? C
   C43        1.0     0.342941     0.598960     0.566512    Uiso  ? C
   C44        1.0     0.657059     0.401040     0.433488    Uiso  ? C
   C45        1.0     0.342941     0.901040     0.933488    Uiso  ? C
   C46        1.0     0.657059     0.098960     0.066512    Uiso  ? C
   C47        1.0     0.157059     0.901040     0.066512    Uiso  ? C
   C48        1.0     0.842941     0.098960     0.933488    Uiso  ? C
   C49        1.0     0.240408     0.639276     0.458313    Uiso  ? C
   C50        1.0     0.759592     0.360724     0.541687    Uiso  ? C
   C51        1.0     0.259592     0.639276     0.541687    Uiso  ? C
   C52        1.0     0.740408     0.360724     0.458313    Uiso  ? C
   C53        1.0     0.259592     0.860724     0.958313    Uiso  ? C
   C54        1.0     0.740408     0.139276     0.041687    Uiso  ? C
   C55        1.0     0.240408     0.860724     0.041687    Uiso  ? C
   C56        1.0     0.759592     0.139276     0.958313    Uiso  ? C
   C57        1.0     0.890503     0.571257     0.394568    Uiso  ? C
   C58        1.0     0.109497     0.428743     0.605432    Uiso  ? C
   C59        1.0     0.609497     0.571257     0.605432    Uiso  ? C
   C60        1.0     0.390503     0.428743     0.394568    Uiso  ? C
   C61        1.0     0.609497     0.928743     0.894568    Uiso  ? C
   C62        1.0     0.390503     0.071257     0.105432    Uiso  ? C
   C63        1.0     0.890503     0.928743     0.105432    Uiso  ? C
   C64        1.0     0.109497     0.071257     0.894568    Uiso  ? C
   C65        1.0     0.219101     0.132167     0.367176    Uiso  ? C
   C66        1.0     0.780899     0.867833     0.632824    Uiso  ? C
   C67        1.0     0.280899     0.132167     0.632824    Uiso  ? C
   C68        1.0     0.719101     0.867833     0.367176    Uiso  ? C
   C69        1.0     0.280899     0.367833     0.867176    Uiso  ? C
   C70        1.0     0.719101     0.632167     0.132824    Uiso  ? C
   C71        1.0     0.219101     0.367833     0.132824    Uiso  ? C
   C72        1.0     0.780899     0.632167     0.867176    Uiso  ? C
   C73        1.0     0.086682     0.078411     0.379064    Uiso  ? C
   C74        1.0     0.913318     0.921589     0.620936    Uiso  ? C
   C75        1.0     0.413318     0.078411     0.620936    Uiso  ? C
   C76        1.0     0.586682     0.921589     0.379064    Uiso  ? C
   C77        1.0     0.413318     0.421589     0.879064    Uiso  ? C
   C78        1.0     0.586682     0.578411     0.120936    Uiso  ? C
   C79        1.0     0.086682     0.421589     0.120936    Uiso  ? C
   C80        1.0     0.913318     0.578411     0.879064    Uiso  ? C
   C81        1.0     0.126326     0.196352     0.360492    Uiso  ? C
   C82        1.0     0.873674     0.803648     0.639508    Uiso  ? C
   C83        1.0     0.373674     0.196352     0.639508    Uiso  ? C
   C84        1.0     0.626326     0.803648     0.360492    Uiso  ? C
   C85        1.0     0.373674     0.303648     0.860492    Uiso  ? C
   C86        1.0     0.626326     0.696352     0.139508    Uiso  ? C
   C87        1.0     0.126326     0.303648     0.139508    Uiso  ? C
   C88        1.0     0.873674     0.696352     0.860492    Uiso  ? C
   C89        1.0     0.223694     0.243165     0.341407    Uiso  ? C
   C90        1.0     0.776306     0.756835     0.658593    Uiso  ? C
   C91        1.0     0.276306     0.243165     0.658593    Uiso  ? C
   C92        1.0     0.723694     0.756835     0.341407    Uiso  ? C
   C93        1.0     0.276306     0.256835     0.841407    Uiso  ? C
   C94        1.0     0.723694     0.743165     0.158593    Uiso  ? C
   C95        1.0     0.223694     0.256835     0.158593    Uiso  ? C
   C96        1.0     0.776306     0.743165     0.841407    Uiso  ? C
   C97        1.0     0.147376     0.301736     0.333777    Uiso  ? C
   C98        1.0     0.852624     0.698264     0.666223    Uiso  ? C
   C99        1.0     0.352624     0.301736     0.666223    Uiso  ? C
   C100       1.0     0.647376     0.698264     0.333777    Uiso  ? C
   C101       1.0     0.352624     0.198264     0.833777    Uiso  ? C
   C102       1.0     0.647376     0.801736     0.166223    Uiso  ? C
   C103       1.0     0.147376     0.198264     0.166223    Uiso  ? C
   C104       1.0     0.852624     0.801736     0.833777    Uiso  ? C
   C105       1.0     0.971035     0.314623     0.345005    Uiso  ? C
   C106       1.0     0.028965     0.685377     0.654995    Uiso  ? C
   C107       1.0     0.528965     0.314623     0.654995    Uiso  ? C
   C108       1.0     0.471035     0.685377     0.345005    Uiso  ? C
   C109       1.0     0.528965     0.185377     0.845005    Uiso  ? C
   C110       1.0     0.471035     0.814623     0.154995    Uiso  ? C
   C111       1.0     0.971035     0.185377     0.154995    Uiso  ? C
   C112       1.0     0.028965     0.814623     0.845005    Uiso  ? C
   C113       1.0     0.873467     0.268153     0.363990    Uiso  ? C
   C114       1.0     0.126533     0.731847     0.636010    Uiso  ? C
   C115       1.0     0.626533     0.268153     0.636010    Uiso  ? C
   C116       1.0     0.373467     0.731847     0.363990    Uiso  ? C
   C117       1.0     0.626533     0.231847     0.863990    Uiso  ? C
   C118       1.0     0.373467     0.768153     0.136010    Uiso  ? C
   C119       1.0     0.873467     0.231847     0.136010    Uiso  ? C
   C120       1.0     0.126533     0.768153     0.863990    Uiso  ? C
   C121       1.0     0.950614     0.209484     0.371650    Uiso  ? C
   C122       1.0     0.049386     0.790516     0.628350    Uiso  ? C
   C123       1.0     0.549386     0.209484     0.628350    Uiso  ? C
   C124       1.0     0.450614     0.790516     0.371650    Uiso  ? C
   C125       1.0     0.549386     0.290516     0.871650    Uiso  ? C
   C126       1.0     0.450614     0.709484     0.128350    Uiso  ? C
   C127       1.0     0.950614     0.290516     0.128350    Uiso  ? C
   C128       1.0     0.049386     0.709484     0.871650    Uiso  ? C
   C129       1.0     0.888902     0.377147     0.338830    Uiso  ? C
   C130       1.0     0.111098     0.622853     0.661170    Uiso  ? C
   C131       1.0     0.611098     0.377147     0.661170    Uiso  ? C
   C132       1.0     0.388902     0.622853     0.338830    Uiso  ? C
   C133       1.0     0.611098     0.122853     0.838830    Uiso  ? C
   C134       1.0     0.388902     0.877147     0.161170    Uiso  ? C
   C135       1.0     0.888902     0.122853     0.161170    Uiso  ? C
   C136       1.0     0.111098     0.877147     0.838830    Uiso  ? C
   C137       1.0     0.357048     0.142436     0.398938    Uiso  ? C
   C138       1.0     0.642952     0.857564     0.601062    Uiso  ? C
   C139       1.0     0.142952     0.142436     0.601062    Uiso  ? C
   C140       1.0     0.857048     0.857564     0.398938    Uiso  ? C
   C141       1.0     0.142952     0.357564     0.898938    Uiso  ? C
   C142       1.0     0.857048     0.642436     0.101062    Uiso  ? C
   C143       1.0     0.357048     0.357564     0.101062    Uiso  ? C
   C144       1.0     0.642952     0.642436     0.898938    Uiso  ? C
   C145       1.0     0.306091     0.110449     0.331049    Uiso  ? C
   C146       1.0     0.693909     0.889551     0.668951    Uiso  ? C
   C147       1.0     0.193909     0.110449     0.668951    Uiso  ? C
   C148       1.0     0.806091     0.889551     0.331049    Uiso  ? C
   C149       1.0     0.193909     0.389551     0.831049    Uiso  ? C
   C150       1.0     0.806091     0.610449     0.168951    Uiso  ? C
   C151       1.0     0.306091     0.389551     0.168951    Uiso  ? C
   C152       1.0     0.693909     0.610449     0.831049    Uiso  ? C
   C153       1.0     0.479878     0.085615     0.328839    Uiso  ? C
   C154       1.0     0.520122     0.914385     0.671161    Uiso  ? C
   C155       1.0     0.020122     0.085615     0.671161    Uiso  ? C
   C156       1.0     0.979878     0.914385     0.328839    Uiso  ? C
   C157       1.0     0.020122     0.414385     0.828839    Uiso  ? C
   C158       1.0     0.979878     0.585615     0.171161    Uiso  ? C
   C159       1.0     0.479878     0.414385     0.171161    Uiso  ? C
   C160       1.0     0.520122     0.585615     0.828839    Uiso  ? C
   C161       1.0     0.550755     0.068122     0.294989    Uiso  ? C
   C162       1.0     0.449245     0.931878     0.705011    Uiso  ? C
   C163       1.0     0.949245     0.068122     0.705011    Uiso  ? C
   C164       1.0     0.050755     0.931878     0.294989    Uiso  ? C
   C165       1.0     0.949245     0.431878     0.794989    Uiso  ? C
   C166       1.0     0.050755     0.568122     0.205011    Uiso  ? C
   C167       1.0     0.550755     0.431878     0.205011    Uiso  ? C
   C168       1.0     0.449245     0.568122     0.794989    Uiso  ? C
   C169       1.0     0.448502     0.075002     0.262900    Uiso  ? C
   C170       1.0     0.551498     0.924998     0.737100    Uiso  ? C
   C171       1.0     0.051498     0.075002     0.737100    Uiso  ? C
   C172       1.0     0.948502     0.924998     0.262900    Uiso  ? C
   C173       1.0     0.051498     0.424998     0.762900    Uiso  ? C
   C174       1.0     0.948502     0.575002     0.237100    Uiso  ? C
   C175       1.0     0.448502     0.424998     0.237100    Uiso  ? C
   C176       1.0     0.551498     0.575002     0.762900    Uiso  ? C
   C177       1.0     0.273680     0.099195     0.265037    Uiso  ? C
   C178       1.0     0.726320     0.900805     0.734963    Uiso  ? C
   C179       1.0     0.226320     0.099195     0.734963    Uiso  ? C
   C180       1.0     0.773680     0.900805     0.265037    Uiso  ? C
   C181       1.0     0.226320     0.400805     0.765037    Uiso  ? C
   C182       1.0     0.773680     0.599195     0.234963    Uiso  ? C
   C183       1.0     0.273680     0.400805     0.234963    Uiso  ? C
   C184       1.0     0.726320     0.599195     0.765037    Uiso  ? C
   C185       1.0     0.203828     0.116879     0.298794    Uiso  ? C
   C186       1.0     0.796172     0.883121     0.701206    Uiso  ? C
   C187       1.0     0.296172     0.116879     0.701206    Uiso  ? C
   C188       1.0     0.703828     0.883121     0.298794    Uiso  ? C
   C189       1.0     0.296172     0.383121     0.798794    Uiso  ? C
   C190       1.0     0.703828     0.616879     0.201206    Uiso  ? C
   C191       1.0     0.203828     0.383121     0.201206    Uiso  ? C
   C192       1.0     0.796172     0.616879     0.798794    Uiso  ? C
   C193       1.0     0.525753     0.054598     0.227673    Uiso  ? C
   C194       1.0     0.474247     0.945402     0.772327    Uiso  ? C
   C195       1.0     0.974247     0.054598     0.772327    Uiso  ? C
   C196       1.0     0.025753     0.945402     0.227673    Uiso  ? C
   C197       1.0     0.974247     0.445402     0.727673    Uiso  ? C
   C198       1.0     0.025753     0.554598     0.272327    Uiso  ? C
   C199       1.0     0.525753     0.445402     0.272327    Uiso  ? C
   C200       1.0     0.474247     0.554598     0.727673    Uiso  ? C
   C201       1.0     0.250000     0.734817     0.500000    Uiso  ? C
   C202       1.0     0.750000     0.265183     0.500000    Uiso  ? C
   C203       1.0     0.250000     0.765183     -0.000000    Uiso  ? C
   C204       1.0     0.750000     0.234817     -0.000000    Uiso  ? C
   O1         1.0     0.971115     0.521121     0.381230    Uiso  ? O
   O2         1.0     0.028885     0.478879     0.618770    Uiso  ? O
   O3         1.0     0.528885     0.521121     0.618770    Uiso  ? O
   O4         1.0     0.471115     0.478879     0.381230    Uiso  ? O
   O5         1.0     0.528885     0.978879     0.881230    Uiso  ? O
   O6         1.0     0.471115     0.021121     0.118770    Uiso  ? O
   O7         1.0     0.971115     0.978879     0.118770    Uiso  ? O
   O8         1.0     0.028885     0.021121     0.881230    Uiso  ? O
   O9         1.0     0.733680     0.584783     0.383707    Uiso  ? O
   O10        1.0     0.266320     0.415217     0.616292    Uiso  ? O
   O11        1.0     0.766320     0.584783     0.616292    Uiso  ? O
   O12        1.0     0.233680     0.415217     0.383707    Uiso  ? O
   O13        1.0     0.766320     0.915217     0.883708    Uiso  ? O
   O14        1.0     0.233680     0.084783     0.116292    Uiso  ? O
   O15        1.0     0.733680     0.915217     0.116292    Uiso  ? O
   O16        1.0     0.266320     0.084783     0.883708    Uiso  ? O
   O17        1.0     0.729127     0.387857     0.349419    Uiso  ? O
   O18        1.0     0.270873     0.612143     0.650581    Uiso  ? O
   O19        1.0     0.770873     0.387857     0.650581    Uiso  ? O
   O20        1.0     0.229127     0.612143     0.349419    Uiso  ? O
   O21        1.0     0.770873     0.112143     0.849419    Uiso  ? O
   O22        1.0     0.229127     0.887857     0.150581    Uiso  ? O
   O23        1.0     0.729127     0.112143     0.150581    Uiso  ? O
   O24        1.0     0.270873     0.887857     0.849419    Uiso  ? O
   O25        1.0     0.979929     0.422537     0.323167    Uiso  ? O
   O26        1.0     0.020071     0.577463     0.676833    Uiso  ? O
   O27        1.0     0.520071     0.422537     0.676833    Uiso  ? O
   O28        1.0     0.479929     0.577463     0.323167    Uiso  ? O
   O29        1.0     0.520071     0.077463     0.823167    Uiso  ? O
   O30        1.0     0.479929     0.922537     0.176833    Uiso  ? O
   O31        1.0     0.979929     0.077463     0.176833    Uiso  ? O
   O32        1.0     0.020071     0.922537     0.823167    Uiso  ? O
   O33        1.0     0.432578     0.057602     0.197493    Uiso  ? O
   O34        1.0     0.567422     0.942398     0.802507    Uiso  ? O
   O35        1.0     0.067422     0.057602     0.802507    Uiso  ? O
   O36        1.0     0.932578     0.942398     0.197493    Uiso  ? O
   O37        1.0     0.067422     0.442398     0.697493    Uiso  ? O
   O38        1.0     0.932578     0.557602     0.302507    Uiso  ? O
   O39        1.0     0.432578     0.442398     0.302507    Uiso  ? O
   O40        1.0     0.567422     0.557602     0.697493    Uiso  ? O
   O41        1.0     0.685137     0.033115     0.226872    Uiso  ? O
   O42        1.0     0.314863     0.966885     0.773128    Uiso  ? O
   O43        1.0     0.814863     0.033115     0.773128    Uiso  ? O
   O44        1.0     0.185137     0.966885     0.226872    Uiso  ? O
   O45        1.0     0.814863     0.466885     0.726872    Uiso  ? O
   O46        1.0     0.185137     0.533115     0.273128    Uiso  ? O
   O47        1.0     0.685137     0.466885     0.273128    Uiso  ? O
   O48        1.0     0.314863     0.533115     0.726872    Uiso  ? O
   F1         1.0     0.989651     0.743358     0.538831    Uiso  ? F
   F2         1.0     0.010349     0.256642     0.461169    Uiso  ? F
   F3         1.0     0.510349     0.743358     0.461169    Uiso  ? F
   F4         1.0     0.489651     0.256642     0.538831    Uiso  ? F
   F5         1.0     0.510349     0.756642     0.038831    Uiso  ? F
   F6         1.0     0.489651     0.243358     0.961169    Uiso  ? F
   F7         1.0     0.989651     0.756642     0.961169    Uiso  ? F
   F8         1.0     0.010349     0.243358     0.038831    Uiso  ? F
   F9         1.0     0.213450     0.807948     0.550217    Uiso  ? F
   F10        1.0     0.786550     0.192052     0.449783    Uiso  ? F
   F11        1.0     0.286550     0.807948     0.449783    Uiso  ? F
   F12        1.0     0.713450     0.192052     0.550217    Uiso  ? F
   F13        1.0     0.286550     0.692052     0.050217    Uiso  ? F
   F14        1.0     0.713450     0.307948     0.949783    Uiso  ? F
   F15        1.0     0.213450     0.692052     0.949783    Uiso  ? F
   F16        1.0     0.786550     0.307948     0.050217    Uiso  ? F
   F17        1.0     0.041120     0.824654     0.502693    Uiso  ? F
   F18        1.0     0.958880     0.175346     0.497307    Uiso  ? F
   F19        1.0     0.458880     0.824654     0.497307    Uiso  ? F
   F20        1.0     0.541120     0.175346     0.502693    Uiso  ? F
   F21        1.0     0.458880     0.675346     0.002693    Uiso  ? F
   F22        1.0     0.541120     0.324654     0.997307    Uiso  ? F
   F23        1.0     0.041120     0.675346     0.997307    Uiso  ? F
   F24        1.0     0.958880     0.324654     0.002693    Uiso  ? F
   F25        1.0     0.948026     0.073225     0.354735    Uiso  ? F
   F26        1.0     0.051974     0.926775     0.645265    Uiso  ? F
   F27        1.0     0.551974     0.073225     0.645265    Uiso  ? F
   F28        1.0     0.448026     0.926775     0.354735    Uiso  ? F
   F29        1.0     0.551974     0.426775     0.854735    Uiso  ? F
   F30        1.0     0.448026     0.573225     0.145265    Uiso  ? F
   F31        1.0     0.948026     0.426775     0.145265    Uiso  ? F
   F32        1.0     0.051974     0.573225     0.854735    Uiso  ? F
   F33        1.0     0.170724     0.021095     0.379763    Uiso  ? F
   F34        1.0     0.829276     0.978905     0.620237    Uiso  ? F
   F35        1.0     0.329276     0.021095     0.620237    Uiso  ? F
   F36        1.0     0.670724     0.978905     0.379763    Uiso  ? F
   F37        1.0     0.329276     0.478905     0.879763    Uiso  ? F
   F38        1.0     0.670724     0.521095     0.120237    Uiso  ? F
   F39        1.0     0.170724     0.478905     0.120237    Uiso  ? F
   F40        1.0     0.829276     0.521095     0.879763    Uiso  ? F
   F41        1.0     0.013586     0.087513     0.412883    Uiso  ? F
   F42        1.0     0.986413     0.912487     0.587117    Uiso  ? F
   F43        1.0     0.486414     0.087513     0.587117    Uiso  ? F
   F44        1.0     0.513587     0.912487     0.412883    Uiso  ? F
   F45        1.0     0.486414     0.412487     0.912883    Uiso  ? F
   F46        1.0     0.513587     0.587513     0.087117    Uiso  ? F
   F47        1.0     0.013586     0.412487     0.087117    Uiso  ? F
   F48        1.0     0.986413     0.587513     0.912883    Uiso  ? F
   F49        1.0     0.493115     0.181637     0.388041    Uiso  ? F
   F50        1.0     0.506885     0.818363     0.611959    Uiso  ? F
   F51        1.0     0.006885     0.181637     0.611959    Uiso  ? F
   F52        1.0    -0.006885     0.818363     0.388041    Uiso  ? F
   F53        1.0     0.006885     0.318363     0.888041    Uiso  ? F
   F54        1.0    -0.006885     0.681637     0.111959    Uiso  ? F
   F55        1.0     0.493115     0.318363     0.111959    Uiso  ? F
   F56        1.0     0.506885     0.681637     0.888041    Uiso  ? F
   F57        1.0     0.277396     0.170448     0.428394    Uiso  ? F
   F58        1.0     0.722604     0.829552     0.571606    Uiso  ? F
   F59        1.0     0.222604     0.170448     0.571606    Uiso  ? F
   F60        1.0     0.777396     0.829552     0.428394    Uiso  ? F
   F61        1.0     0.222604     0.329552     0.928394    Uiso  ? F
   F62        1.0     0.777396     0.670448     0.071606    Uiso  ? F
   F63        1.0     0.277396     0.329552     0.071606    Uiso  ? F
   F64        1.0     0.722604     0.670448     0.928394    Uiso  ? F
   F65        1.0     0.434017     0.087848     0.411203    Uiso  ? F
   F66        1.0     0.565983     0.912152     0.588797    Uiso  ? F
   F67        1.0     0.065983     0.087848     0.588797    Uiso  ? F
   F68        1.0     0.934017     0.912152     0.411203    Uiso  ? F
   F69        1.0     0.065983     0.412152     0.911203    Uiso  ? F
   F70        1.0     0.934017     0.587848     0.088797    Uiso  ? F
   F71        1.0     0.434017     0.412152     0.088797    Uiso  ? F
   F72        1.0     0.565983     0.587848     0.911203    Uiso  ? F
   H1         1.0     0.314445     0.951605     0.706869    Uiso  ? H
   H2         1.0     0.685555     0.048394     0.293131    Uiso  ? H
   H3         1.0     0.185555     0.951605     0.293131    Uiso  ? H
   H4         1.0     0.814445     0.048394     0.706869    Uiso  ? H
   H5         1.0     0.185555     0.548395     0.206869    Uiso  ? H
   H6         1.0     0.814445     0.451606     0.793131    Uiso  ? H
   H7         1.0     0.314445     0.548395     0.793131    Uiso  ? H
   H8         1.0     0.685555     0.451606     0.206869    Uiso  ? H
   H9         1.0     0.438205     0.920527     0.646766    Uiso  ? H
   H10        1.0     0.561795     0.079473     0.353234    Uiso  ? H
   H11        1.0     0.061795     0.920527     0.353234    Uiso  ? H
   H12        1.0     0.938205     0.079473     0.646766    Uiso  ? H
   H13        1.0     0.061795     0.579473     0.146766    Uiso  ? H
   H14        1.0     0.938205     0.420527     0.853234    Uiso  ? H
   H15        1.0     0.438205     0.579473     0.853234    Uiso  ? H
   H16        1.0     0.561795     0.420527     0.146766    Uiso  ? H
   H17        1.0     0.807111     0.896249     0.759735    Uiso  ? H
   H18        1.0     0.192889     0.103751     0.240265    Uiso  ? H
   H19        1.0     0.692889     0.896249     0.240265    Uiso  ? H
   H20        1.0     0.307111     0.103751     0.759735    Uiso  ? H
   H21        1.0     0.692889     0.603751     0.259735    Uiso  ? H
   H22        1.0     0.307111     0.396249     0.740265    Uiso  ? H
   H23        1.0     0.807111     0.603751     0.740265    Uiso  ? H
   H24        1.0     0.192889     0.396249     0.259735    Uiso  ? H
   H25        1.0     0.931072     0.863482     0.699887    Uiso  ? H
   H26        1.0     0.068928     0.136518     0.300113    Uiso  ? H
   H27        1.0     0.568928     0.863482     0.300113    Uiso  ? H
   H28        1.0     0.431072     0.136518     0.699887    Uiso  ? H
   H29        1.0     0.568928     0.636518     0.199887    Uiso  ? H
   H30        1.0     0.431072     0.363482     0.800113    Uiso  ? H
   H31        1.0     0.931072     0.636518     0.800113    Uiso  ? H
   H32        1.0     0.068928     0.363482     0.199887    Uiso  ? H
   H33        1.0     0.762491     0.278767     0.626919    Uiso  ? H
   H34        1.0     0.237509     0.721233     0.373081    Uiso  ? H
   H35        1.0     0.737509     0.278767     0.373081    Uiso  ? H
   H36        1.0     0.262491     0.721233     0.626919    Uiso  ? H
   H37        1.0     0.737509     0.221233     0.126919    Uiso  ? H
   H38        1.0     0.262491     0.778767     0.873081    Uiso  ? H
   H39        1.0     0.762491     0.221233     0.873081    Uiso  ? H
   H40        1.0     0.237509     0.778767     0.126919    Uiso  ? H
   H41        1.0     0.275056     0.162198     0.819369    Uiso  ? H
   H42        1.0     0.724944     0.837802     0.180631    Uiso  ? H
   H43        1.0     0.224944     0.162198     0.180631    Uiso  ? H
   H44        1.0     0.775056     0.837802     0.819369    Uiso  ? H
   H45        1.0     0.224944     0.337802     0.319369    Uiso  ? H
   H46        1.0     0.775056     0.662198     0.680631    Uiso  ? H
   H47        1.0     0.275056     0.337802     0.680631    Uiso  ? H
   H48        1.0     0.724944     0.662198     0.319369    Uiso  ? H
   H49        1.0     0.628046     0.325467     0.886484    Uiso  ? H
   H50        1.0     0.371954     0.674533     0.113516    Uiso  ? H
   H51        1.0     0.871954     0.325467     0.113516    Uiso  ? H
   H52        1.0     0.128046     0.674533     0.886484    Uiso  ? H
   H53        1.0     0.871954     0.174533     0.386484    Uiso  ? H
   H54        1.0     0.128046     0.825467     0.613516    Uiso  ? H
   H55        1.0     0.628046     0.174533     0.613516    Uiso  ? H
   H56        1.0     0.371954     0.825467     0.386484    Uiso  ? H
   H57        1.0     0.140242     0.266598     0.832121    Uiso  ? H
   H58        1.0     0.859758     0.733402     0.167879    Uiso  ? H
   H59        1.0     0.359758     0.266598     0.167879    Uiso  ? H
   H60        1.0     0.640242     0.733402     0.832121    Uiso  ? H
   H61        1.0     0.359758     0.233402     0.332121    Uiso  ? H
   H62        1.0     0.640242     0.766598     0.667879    Uiso  ? H
   H63        1.0     0.140242     0.233402     0.667879    Uiso  ? H
   H64        1.0     0.859758     0.766598     0.332121    Uiso  ? H
   H65        1.0     0.743411     0.675553     0.574548    Uiso  ? H
   H66        1.0     0.256589     0.324447     0.425452    Uiso  ? H
   H67        1.0     0.756589     0.675553     0.425452    Uiso  ? H
   H68        1.0     0.243411     0.324447     0.574548    Uiso  ? H
   H69        1.0     0.756589     0.824447     0.074548    Uiso  ? H
   H70        1.0     0.243411     0.175553     0.925452    Uiso  ? H
   H71        1.0     0.743411     0.824447     0.925452    Uiso  ? H
   H72        1.0     0.256589     0.175553     0.074548    Uiso  ? H
   H73        1.0     0.271678     0.557540     0.576909    Uiso  ? H
   H74        1.0     0.728322     0.442460     0.423091    Uiso  ? H
   H75        1.0     0.228322     0.557540     0.423091    Uiso  ? H
   H76        1.0     0.771678     0.442460     0.576909    Uiso  ? H
   H77        1.0     0.228322     0.942460     0.076909    Uiso  ? H
   H78        1.0     0.771678     0.057540     0.923091    Uiso  ? H
   H79        1.0     0.271678     0.942460     0.923091    Uiso  ? H
   H80        1.0     0.728322     0.057540     0.076909    Uiso  ? H
   H81        1.0     0.123448     0.628746     0.532711    Uiso  ? H
   H82        1.0     0.876552     0.371254     0.467289    Uiso  ? H
   H83        1.0     0.376552     0.628746     0.467289    Uiso  ? H
   H84        1.0     0.623448     0.371254     0.532711    Uiso  ? H
   H85        1.0     0.376552     0.871254     0.032711    Uiso  ? H
   H86        1.0     0.623448     0.128746     0.967289    Uiso  ? H
   H87        1.0     0.123448     0.871254     0.967289    Uiso  ? H
   H88        1.0     0.876552     0.128746     0.032711    Uiso  ? H
   H89        1.0     0.598068     0.746579     0.529798    Uiso  ? H
   H90        1.0     0.401932     0.253421     0.470202    Uiso  ? H
   H91        1.0     0.901932     0.746579     0.470202    Uiso  ? H
   H92        1.0     0.098068     0.253421     0.529798    Uiso  ? H
   H93        1.0     0.901932     0.753421     0.029798    Uiso  ? H
   H94        1.0     0.098068     0.246579     0.970202    Uiso  ? H
   H95        1.0     0.598068     0.753421     0.970202    Uiso  ? H
   H96        1.0     0.401932     0.246579     0.029798    Uiso  ? H
