
#======================================================================
# CRYSTAL DATA
#----------------------------------------------------------------------
data_VESTA_phase_1

_chemical_name_common                  'MIL-53-NDC-sem-oh                     '
_cell_length_a                         22.431961
_cell_length_b                         6.640200
_cell_length_c                         11.955528
_cell_angle_alpha                      90.083511
_cell_angle_beta                       90.002434
_cell_angle_gamma                      90.000938
_cell_volume                           1780.806451
_space_group_name_H-M_alt              'P 1'
_space_group_IT_number                 1

loop_
_space_group_symop_operation_xyz
   'x, y, z'

loop_
   _atom_site_label
   _atom_site_occupancy
   _atom_site_fract_x
   _atom_site_fract_y
   _atom_site_fract_z
   _atom_site_adp_type
   _atom_site_U_iso_or_equiv
   _atom_site_type_symbol
   O1         1.0     0.305115     0.670087     0.356907    Uiso  ? O
   O2         1.0     0.693026     0.330476     0.647435    Uiso  ? O
   O3         1.0     0.193023     0.331010     0.352418    Uiso  ? O
   O4         1.0     0.805072     0.669406     0.643259    Uiso  ? O
   O5         1.0     0.193031     0.168882     0.147548    Uiso  ? O
   O6         1.0     0.805025     0.830564     0.856864    Uiso  ? O
   O7         1.0     0.305111     0.829809     0.143094    Uiso  ? O
   O8         1.0     0.693012     0.169421     0.852569    Uiso  ? O
   O9         1.0     0.316850     0.331154     0.349996    Uiso  ? O
   O10        1.0     0.681319     0.668392     0.653052    Uiso  ? O
   O11        1.0     0.181290     0.668861     0.346895    Uiso  ? O
   O12        1.0     0.816904     0.330576     0.650123    Uiso  ? O
   O13        1.0     0.181298     0.831029     0.153070    Uiso  ? O
   O14        1.0     0.816886     0.169381     0.849973    Uiso  ? O
   O15        1.0     0.316857     0.168746     0.150012    Uiso  ? O
   O16        1.0     0.681283     0.831515     0.846884    Uiso  ? O
   O17        1.0     0.250544     0.500073     0.181275    Uiso  ? O
   O18        1.0     0.750445     0.500421     0.818690    Uiso  ? O
   O19        1.0     0.250544     0.999841     0.318702    Uiso  ? O
   O20        1.0     0.750467     0.999545     0.681351    Uiso  ? O
   C1         1.0     0.334050     0.508326     0.375721    Uiso  ? C
   C2         1.0     0.664057     0.491371     0.628156    Uiso  ? C
   C3         1.0     0.164056     0.491920     0.371800    Uiso  ? C
   C4         1.0     0.834096     0.507694     0.624555    Uiso  ? C
   C5         1.0     0.164063     0.007981     0.128162    Uiso  ? C
   C6         1.0     0.834067     0.992245     0.875549    Uiso  ? C
   C7         1.0     0.334050     0.991584     0.124286    Uiso  ? C
   C8         1.0     0.664033     0.008535     0.871810    Uiso  ? C
   C9         1.0     0.393185     0.532839     0.430937    Uiso  ? C
   C10        1.0     0.604965     0.466019     0.573094    Uiso  ? C
   C11        1.0     0.105013     0.466557     0.426999    Uiso  ? C
   C12        1.0     0.893284     0.532370     0.569624    Uiso  ? C
   C13        1.0     0.105022     0.033326     0.072960    Uiso  ? C
   C14        1.0     0.893264     0.967539     0.930454    Uiso  ? C
   C15        1.0     0.393177     0.967040     0.069059    Uiso  ? C
   C16        1.0     0.604944     0.033879     0.926868    Uiso  ? C
   C17        1.0     0.408025     0.721115     0.480230    Uiso  ? C
   C18        1.0     0.590227     0.277114     0.524471    Uiso  ? C
   C19        1.0     0.090349     0.277506     0.475245    Uiso  ? C
   C20        1.0     0.908085     0.720890     0.520881    Uiso  ? C
   C21        1.0     0.090350     0.222380     0.024731    Uiso  ? C
   C22        1.0     0.908074     0.779002     0.979164    Uiso  ? C
   C23        1.0     0.408006     0.778784     0.019743    Uiso  ? C
   C24        1.0     0.590214     0.222761     0.975512    Uiso  ? C
   C25        1.0     0.462970     0.749930     0.528491    Uiso  ? C
   C26        1.0     0.535310     0.248493     0.475865    Uiso  ? C
   C27        1.0     0.035481     0.248660     0.523934    Uiso  ? C
   C28        1.0     0.963018     0.750047     0.472696    Uiso  ? C
   C29        1.0     0.035474     0.251239     0.976071    Uiso  ? C
   C30        1.0     0.963020     0.749822     0.027303    Uiso  ? C
   C31        1.0     0.462945     0.749959     0.971467    Uiso  ? C
   C32        1.0     0.535302     0.251370     0.024133    Uiso  ? C
   C33        1.0     0.491806     0.404220     0.476686    Uiso  ? C
   C34        1.0     0.506490     0.594424     0.527277    Uiso  ? C
   C35        1.0     0.006558     0.594628     0.473410    Uiso  ? C
   C36        1.0     0.991935     0.404238     0.523549    Uiso  ? C
   C37        1.0     0.006561     0.905246     0.026578    Uiso  ? C
   C38        1.0     0.991926     0.095656     0.976476    Uiso  ? C
   C39        1.0     0.491799     0.095642     0.023302    Uiso  ? C
   C40        1.0     0.506473     0.905455     0.972689    Uiso  ? C
   C41        1.0     0.434370     0.377483     0.429946    Uiso  ? C
   C42        1.0     0.563922     0.621619     0.573794    Uiso  ? C
   C43        1.0     0.063948     0.622079     0.426801    Uiso  ? C
   C44        1.0     0.934511     0.377149     0.570249    Uiso  ? C
   C45        1.0     0.063958     0.877784     0.073153    Uiso  ? C
   C46        1.0     0.934491     0.122764     0.929823    Uiso  ? C
   C47        1.0     0.434370     0.122386     0.070061    Uiso  ? C
   C48        1.0     0.563897     0.878270     0.926157    Uiso  ? C
   H1         1.0     0.474033     0.893292     0.568064    Uiso  ? H
   H2         1.0     0.524260     0.104989     0.436437    Uiso  ? H
   H3         1.0     0.024511     0.105063     0.563103    Uiso  ? H
   H4         1.0     0.974030     0.893563     0.433502    Uiso  ? H
   H5         1.0     0.024497     0.394843     0.936921    Uiso  ? H
   H6         1.0     0.974040     0.606296     0.066475    Uiso  ? H
   H7         1.0     0.473998     0.606608     0.931883    Uiso  ? H
   H8         1.0     0.524259     0.394863     0.063578    Uiso  ? H
   H9         1.0     0.575922     0.765402     0.611933    Uiso  ? H
   H10        1.0     0.422563     0.233999     0.391240    Uiso  ? H
   H11        1.0     0.922747     0.233479     0.608557    Uiso  ? H
   H12        1.0     0.075887     0.766000     0.388982    Uiso  ? H
   H13        1.0     0.922717     0.266448     0.891543    Uiso  ? H
   H14        1.0     0.075906     0.733859     0.110955    Uiso  ? H
   H15        1.0     0.575894     0.734499     0.887998    Uiso  ? H
   H16        1.0     0.422572     0.265853     0.108779    Uiso  ? H
   H17        1.0     0.623392     0.157302     0.526917    Uiso  ? H
   H18        1.0     0.374967     0.841131     0.478865    Uiso  ? H
   H19        1.0     0.874999     0.840802     0.522636    Uiso  ? H
   H20        1.0     0.123540     0.157790     0.472431    Uiso  ? H
   H21        1.0     0.874987     0.659091     0.977414    Uiso  ? H
   H22        1.0     0.123542     0.342099     0.027544    Uiso  ? H
   H23        1.0     0.623381     0.342573     0.973074    Uiso  ? H
   H24        1.0     0.374944     0.658768     0.021101    Uiso  ? H
   H25        1.0     0.271057     0.506748     0.110103    Uiso  ? H
   H26        1.0     0.271030     0.993173     0.389905    Uiso  ? H
   H27        1.0     0.770260     0.507203     0.890557    Uiso  ? H
   H28        1.0     0.770334     0.992764     0.609539    Uiso  ? H
   Al1        1.0     0.244750     0.749962     0.249988    Uiso  ? Al
   Al2        1.0     0.753129     0.249987     0.750030    Uiso  ? Al
   Al3        1.0     0.253134     0.249969     0.249992    Uiso  ? Al
   Al4        1.0     0.744757     0.749983     0.750009    Uiso  ? Al
