
#======================================================================
# CRYSTAL DATA
#----------------------------------------------------------------------
data_VESTA_phase_1

_chemical_name_common                  'MIL-53(Al)-F4-p1                      '
_cell_length_a                         6.631339
_cell_length_b                         18.672508
_cell_length_c                         9.751927
_cell_angle_alpha                      90.139511
_cell_angle_beta                       89.473427
_cell_angle_gamma                      89.808128
_cell_volume                           1207.458532
_space_group_name_H-M_alt              'P 1'
_space_group_IT_number                 1

loop_
_space_group_symop_operation_xyz
   'x, y, z'

loop_
   _atom_site_label
   _atom_site_occupancy
   _atom_site_fract_x
   _atom_site_fract_y
   _atom_site_fract_z
   _atom_site_adp_type
   _atom_site_U_iso_or_equiv
   _atom_site_type_symbol
   C1         1.0     0.006578     0.154468     0.899743    Uiso  ? C
   C2         1.0    -0.006210     0.858550     0.099428    Uiso  ? C
   C3         1.0     0.004216     0.359044     0.882540    Uiso  ? C
   C4         1.0    -0.005594     0.653480     0.087718    Uiso  ? C
   C5         1.0     0.493165     0.646822     0.378854    Uiso  ? C
   C6         1.0     0.507166     0.354357     0.590841    Uiso  ? C
   C7         1.0     0.483430     0.851790     0.401669    Uiso  ? C
   C8         1.0     0.516120     0.149088     0.596811    Uiso  ? C
   C9         1.0    -0.001900     0.080693     0.960040    Uiso  ? C
   C10        1.0     0.000728     0.933327     0.043845    Uiso  ? C
   C11        1.0     0.005012     0.433661     0.938775    Uiso  ? C
   C12        1.0    -0.008430     0.579657     0.027752    Uiso  ? C
   C13        1.0     0.494763     0.572341     0.435016    Uiso  ? C
   C14        1.0     0.508816     0.427786     0.529671    Uiso  ? C
   C15        1.0     0.485701     0.925975     0.461071    Uiso  ? C
   C16        1.0     0.511460     0.074007     0.541909    Uiso  ? C
   C17        1.0     0.835407     0.531723     0.059068    Uiso  ? C
   C18        1.0     0.153588     0.552843     0.949621    Uiso  ? C
   C19        1.0     0.834761     0.963942     0.977527    Uiso  ? C
   C20        1.0     0.163651     0.050199     0.027110    Uiso  ? C
   C21        1.0     0.656469     0.953593     0.526463    Uiso  ? C
   C22        1.0     0.340345     0.046291     0.477018    Uiso  ? C
   C23        1.0     0.353372     0.452041     0.445120    Uiso  ? C
   C24        1.0     0.651059     0.547922     0.518677    Uiso  ? C
   C25        1.0     0.842601     0.460528     0.016311    Uiso  ? C
   C26        1.0     0.160529     0.481681     0.906664    Uiso  ? C
   C27        1.0     0.166614     0.978422     0.065828    Uiso  ? C
   C28        1.0     0.831742     0.035733     0.938948    Uiso  ? C
   C29        1.0     0.325978     0.974326     0.440240    Uiso  ? C
   C30        1.0     0.670416     0.025455     0.563890    Uiso  ? C
   C31        1.0     0.658314     0.477369     0.564478    Uiso  ? C
   C32        1.0     0.346278     0.522540     0.399043    Uiso  ? C
   F1         1.0     0.676002     0.551820     0.136928    Uiso  ? F
   F2         1.0     0.306529     0.595735     0.910446    Uiso  ? F
   F3         1.0     0.672645     0.924304     0.944495    Uiso  ? F
   F4         1.0     0.325517     0.090013     0.059797    Uiso  ? F
   F5         1.0     0.813643     0.911114     0.558666    Uiso  ? F
   F6         1.0     0.183328     0.088699     0.443786    Uiso  ? F
   F7         1.0     0.207942     0.407093     0.402652    Uiso  ? F
   F8         1.0     0.796914     0.592683     0.561282    Uiso  ? F
   F9         1.0     0.689663     0.417656     0.055663    Uiso  ? F
   F10        1.0     0.319137     0.461402     0.828238    Uiso  ? F
   F11        1.0     0.334332     0.954843     0.128476    Uiso  ? F
   F12        1.0     0.663806     0.059187     0.876615    Uiso  ? F
   F13        1.0     0.153259     0.954183     0.379981    Uiso  ? F
   F14        1.0     0.842550     0.045507     0.625064    Uiso  ? F
   F15        1.0     0.810147     0.459429     0.648769    Uiso  ? F
   F16        1.0     0.195169     0.540387     0.314013    Uiso  ? F
   O1         1.0     0.653885     0.823208     0.377188    Uiso  ? O
   O2         1.0     0.346744     0.179170     0.617731    Uiso  ? O
   O3         1.0     0.323047     0.676613     0.363102    Uiso  ? O
   O4         1.0     0.675689     0.323588     0.607623    Uiso  ? O
   O5         1.0     0.335925     0.329634     0.623835    Uiso  ? O
   O6         1.0     0.663297     0.673706     0.349943    Uiso  ? O
   O7         1.0     0.687806     0.175572     0.621761    Uiso  ? O
   O8         1.0     0.312675     0.824868     0.375638    Uiso  ? O
   O9         1.0     0.172186     0.327031     0.869239    Uiso  ? O
   O10        1.0     0.826991     0.685376     0.104921    Uiso  ? O
   O11        1.0     0.840275     0.186434     0.880445    Uiso  ? O
   O12        1.0     0.160751     0.826565     0.115967    Uiso  ? O
   O13        1.0     0.820181     0.834371     0.128791    Uiso  ? O
   O14        1.0     0.180600     0.177546     0.868112    Uiso  ? O
   O15        1.0     0.165986     0.677458     0.120033    Uiso  ? O
   O16        1.0     0.833528     0.334353     0.850266    Uiso  ? O
   O17        1.0     0.011915     0.249992     0.658663    Uiso  ? O
   O18        1.0    -0.011659     0.752780     0.325456    Uiso  ? O
   O19        1.0     0.490879     0.757611     0.158597    Uiso  ? O
   O20        1.0     0.509236     0.253284     0.825967    Uiso  ? O
   Al1        1.0     0.259474     0.254035     0.744186    Uiso  ? Al
   Al2        1.0     0.740409     0.753287     0.240364    Uiso  ? Al
   Al3        1.0     0.759557     0.254885     0.740271    Uiso  ? Al
   Al4        1.0     0.240423     0.751627     0.243351    Uiso  ? Al
   H1         1.0     0.511973     0.231376     0.915964    Uiso  ? H
   H2         1.0     0.015318     0.222859     0.573742    Uiso  ? H
   H3         1.0     0.985957     0.772729     0.417319    Uiso  ? H
   H4         1.0     0.488039     0.784735     0.073969    Uiso  ? H
