
#======================================================================
# CRYSTAL DATA
#----------------------------------------------------------------------
data_VESTA_phase_1

_chemical_name_common                  'mil53AllargeCF3_optimized             '
_cell_length_a                         6.667120
_cell_length_b                         16.184399
_cell_length_c                         13.626605
_cell_angle_alpha                      89.614197
_cell_angle_beta                       89.184128
_cell_angle_gamma                      89.377106
_cell_volume                           1470.088360
_space_group_name_H-M_alt              'P 1'
_space_group_IT_number                 1

loop_
_space_group_symop_operation_xyz
   'x, y, z'

loop_
   _atom_site_label
   _atom_site_occupancy
   _atom_site_fract_x
   _atom_site_fract_y
   _atom_site_fract_z
   _atom_site_adp_type
   _atom_site_U_iso_or_equiv
   _atom_site_type_symbol
   O1         1.0     0.674962     0.673742     0.836411    Uiso  ? O
   O2         1.0     0.181107     0.159670     0.317650    Uiso  ? O
   O3         1.0     0.327381     0.850397     0.796815    Uiso  ? O
   O4         1.0     0.834394     0.337078     0.317475    Uiso  ? O
   O5         1.0     0.345576     0.167220     0.131622    Uiso  ? O
   O6         1.0     0.840916     0.652722     0.653396    Uiso  ? O
   O7         1.0     0.677650     0.340787     0.145765    Uiso  ? O
   O8         1.0     0.170776     0.822366     0.627894    Uiso  ? O
   O9         1.0     0.337812     0.336675     0.145008    Uiso  ? O
   O10        1.0     0.830944     0.821294     0.627737    Uiso  ? O
   O11        1.0     0.685498     0.169978     0.132370    Uiso  ? O
   O12        1.0     0.180992     0.652818     0.656978    Uiso  ? O
   O13        1.0     0.665608     0.838905     0.804870    Uiso  ? O
   O14        1.0     0.173287     0.326813     0.323881    Uiso  ? O
   O15        1.0     0.335160     0.685044     0.843502    Uiso  ? O
   O16        1.0     0.840889     0.168439     0.324665    Uiso  ? O
   O17        1.0     0.504093     0.736275     0.671663    Uiso  ? O
   O18        1.0     0.010684     0.247785     0.168623    Uiso  ? O
   O19        1.0     0.508435     0.244564     0.288155    Uiso  ? O
   O20        1.0     0.001580     0.753978     0.789934    Uiso  ? O
   C1         1.0     0.340663     0.534443     0.945538    Uiso  ? C
   C2         1.0     0.848073     0.013713     0.418326    Uiso  ? C
   C3         1.0     0.664858     0.947663     0.959087    Uiso  ? C
   C4         1.0     0.162980     0.427361     0.490411    Uiso  ? C
   C5         1.0     0.673486     0.009108     0.029827    Uiso  ? C
   C6         1.0     0.167168     0.488283     0.562146    Uiso  ? C
   C7         1.0     0.338564     0.464116     0.004496    Uiso  ? C
   C8         1.0     0.842134     0.943205     0.476981    Uiso  ? C
   C9         1.0     0.651953     0.506000     0.075953    Uiso  ? C
   C10        1.0     0.153174     0.983974     0.551437    Uiso  ? C
   C11        1.0     0.367936     0.069001     0.964825    Uiso  ? C
   C12        1.0     0.863286     0.547873     0.494830    Uiso  ? C
   C13        1.0     0.355899     0.005760     0.896582    Uiso  ? C
   C14        1.0     0.855177     0.485179     0.425917    Uiso  ? C
   C15        1.0     0.649490     0.578509     0.020115    Uiso  ? C
   C16        1.0     0.154219     0.056705     0.496094    Uiso  ? C
   C17        1.0     0.498016     0.590721     0.949888    Uiso  ? C
   C18        1.0     0.503135     0.656140     0.871780    Uiso  ? C
   C19        1.0     0.005255     0.070001     0.424842    Uiso  ? C
   C20        1.0     0.009569     0.138897     0.350792    Uiso  ? C
   C21        1.0     0.505968     0.944992     0.893432    Uiso  ? C
   C22        1.0     0.498364     0.873235     0.825654    Uiso  ? C
   C23        1.0     0.007783     0.425511     0.422611    Uiso  ? C
   C24        1.0     0.004835     0.358136     0.348734    Uiso  ? C
   C25        1.0     0.523713     0.071621     0.032771    Uiso  ? C
   C26        1.0     0.518779     0.141206     0.105196    Uiso  ? C
   C27        1.0     0.017613     0.550905     0.563456    Uiso  ? C
   C28        1.0     0.013743     0.623669     0.631213    Uiso  ? C
   C29        1.0     0.499212     0.448035     0.066691    Uiso  ? C
   C30        1.0     0.505623     0.369395     0.124059    Uiso  ? C
   C31        1.0     0.999260     0.926811     0.541117    Uiso  ? C
   C32        1.0     0.000346     0.850995     0.603506    Uiso  ? C
   C33        1.0     0.327361     0.480017     0.639216    Uiso  ? C
   C34        1.0     0.801970     0.643978     0.042794    Uiso  ? C
   C35        1.0     0.307693     0.120872     0.521671    Uiso  ? C
   C36        1.0     0.837667     0.000644     0.104761    Uiso  ? C
   H1         1.0     0.732320     0.482022     0.374247    Uiso  ? H
   H2         1.0     0.230695     0.002778     0.846230    Uiso  ? H
   H3         1.0     0.748061     0.595911     0.497219    Uiso  ? H
   H4         1.0     0.253025     0.117169     0.967908    Uiso  ? H
   H5         1.0     0.268796     0.971711     0.605367    Uiso  ? H
   H6         1.0     0.770434     0.494294     0.128593    Uiso  ? H
   H7         1.0     0.718195     0.900090     0.472872    Uiso  ? H
   H8         1.0     0.215964     0.420294     0.001486    Uiso  ? H
   H9         1.0     0.277543     0.379006     0.488006    Uiso  ? H
   H10        1.0     0.778291     0.898937     0.956143    Uiso  ? H
   H11        1.0     0.730668     0.026387     0.365740    Uiso  ? H
   H12        1.0     0.221889     0.546423     0.893450    Uiso  ? H
   H13        1.0     0.509985     0.212235     0.348482    Uiso  ? H
   H14        1.0     0.001501     0.730621     0.855802    Uiso  ? H
   H15        1.0     0.501199     0.690283     0.626321    Uiso  ? H
   H16        1.0     0.009357     0.210891     0.112748    Uiso  ? H
   Al1        1.0     0.753322     0.746703     0.729848    Uiso  ? Al
   Al2        1.0     0.253498     0.750811     0.731049    Uiso  ? Al
   Al3        1.0     0.259736     0.247733     0.228705    Uiso  ? Al
   Al4        1.0     0.759474     0.251860     0.229317    Uiso  ? Al
   F1         1.0     0.481874     0.534190     0.626616    Uiso  ? F
   F2         1.0     0.967676     0.643056     0.981802    Uiso  ? F
   F3         1.0     0.474628     0.120169     0.461405    Uiso  ? F
   F4         1.0     0.987867     0.056771     0.092593    Uiso  ? F
   F5         1.0     0.413766     0.403031     0.638978    Uiso  ? F
   F6         1.0     0.874122     0.634322     0.135705    Uiso  ? F
   F7         1.0     0.377941     0.108759     0.614587    Uiso  ? F
   F8         1.0     0.929291     0.924721     0.101023    Uiso  ? F
   F9         1.0     0.250516     0.491281     0.731802    Uiso  ? F
   F10        1.0     0.721413     0.721933     0.037854    Uiso  ? F
   F11        1.0     0.230184     0.199329     0.519053    Uiso  ? F
   F12        1.0     0.763701     0.008667     0.198358    Uiso  ? F
